/home/jiangjiaxin/enamine/Enamine_hts_collection_202301.sdf:1062100
     RDKit          3D

 27 30  0  0  0  0  0  0  0  0999 V2000
   -0.4488   14.0865   20.6882 F   0  0  0  0  0  0  0  0  0  0  0  0
    0.2301   13.6370   21.7405 C   0  0  2  0  0  0  0  0  0  0  0  0
   -0.2024   14.2730   22.8300 F   0  0  0  0  0  0  0  0  0  0  0  0
    1.5215   13.9287   21.5759 F   0  0  0  0  0  0  0  0  0  0  0  0
    0.0472   12.1307   21.8647 C   0  0  0  0  0  0  0  0  0  0  0  0
   -0.7656   11.5782   22.8765 C   0  0  0  0  0  0  0  0  0  0  0  0
   -0.9149   10.1836   22.9859 C   0  0  0  0  0  0  0  0  0  0  0  0
   -0.2618    9.3298   22.0772 C   0  0  0  0  0  0  0  0  0  0  0  0
    0.5614    9.8697   21.0605 C   0  0  0  0  0  0  0  0  0  0  0  0
    0.7011   11.2712   20.9594 C   0  0  0  0  0  0  0  0  0  0  0  0
    1.2481    8.9819   20.0644 C   0  0  0  0  0  0  0  0  0  0  0  0
    1.4349    9.3705   18.9111 O   0  0  0  0  0  0  0  0  0  0  0  0
    1.6487    7.7948   20.5514 N   0  0  0  0  0  0  0  0  0  0  0  0
    2.3045    6.7410   19.8688 C   0  0  0  0  0  0  0  0  0  0  0  0
    2.1173    5.4298   20.3612 C   0  0  0  0  0  0  0  0  0  0  0  0
    2.8126    4.3460   19.7985 C   0  0  0  0  0  0  0  0  0  0  0  0
    3.7137    4.5965   18.7550 C   0  0  0  0  0  0  0  0  0  0  0  0
    4.5872    3.8121   18.0329 N   0  0  0  0  0  0  0  0  0  0  0  0
    5.2351    4.6323   17.1886 C   0  0  0  0  0  0  0  0  0  0  0  0
    4.8463    5.9064   17.2051 N   0  0  0  0  0  0  0  0  0  0  0  0
    3.9028    5.9020   18.2151 C   0  0  0  0  0  0  0  0  0  0  0  0
    3.1755    6.9677   18.7768 C   0  0  0  0  0  0  0  0  0  0  0  0
    6.2965    4.0664   16.3143 C   0  0  2  0  0  0  0  0  0  0  0  0
    7.2391    5.0604   15.6436 C   0  0  0  0  0  0  0  0  0  0  0  0
    6.5484    5.3694   14.3290 C   0  0  0  0  0  0  0  0  0  0  0  0
    5.5164    4.2547   14.1398 C   0  0  0  0  0  0  0  0  0  0  0  0
    5.6559    3.3806   15.2496 O   0  0  0  0  0  0  0  0  0  0  0  0
  2  1  1  6
  2  3  1  0
  2  4  1  0
  2  5  1  0
  5  6  2  0
  5 10  1  0
  6  7  1  0
  7  8  2  0
  8  9  1  0
  9 10  2  0
  9 11  1  0
 11 12  2  0
 11 13  1  0
 13 14  1  0
 14 15  2  0
 14 22  1  0
 15 16  1  0
 16 17  2  0
 17 18  1  0
 17 21  1  0
 18 19  1  0
 19 20  2  0
 19 23  1  0
 20 21  1  0
 21 22  2  0
 23 24  1  6
 23 27  1  0
 24 25  1  0
 25 26  1  0
 26 27  1  0
M  END
>  <s_i_glide_gridfile>  (1) 
glide-grid_CBLB_2

>  <s_lp_Force_Field>  (1) 
OPLS_2005

>  <s_lp_Variant>  (1) 
/home/jiangjiaxin/enamine/Enamine_hts_collection_202301.sdf:1062100-1

>  <s_m_source_file>  (1) 
/home/jiangjiaxin/enamine/Enamine_hts_collection_202301.sdf

>  <s_sd_idnumber>  (1) 
Z827179352

>  <s_sd_link>  (1) 
https://www.enaminestore.com/catalog/Z827179352

>  <r_i_docking_score>  (1) 
-6.0069800552547399

>  <r_i_glide_ecoul>  (1) 
-1.8764773607253999

>  <r_i_glide_eff_state_penalty>  (1) 
0

>  <r_i_glide_einternal>  (1) 
2.6724665164947501

>  <r_i_glide_emodel>  (1) 
-55.528445502510202

>  <r_i_glide_energy>  (1) 
-41.648392796516397

>  <r_i_glide_erotb>  (1) 
0.54927224139451403

>  <r_i_glide_esite>  (1) 
-0.044849721149719503

>  <r_i_glide_evdw>  (1) 
-39.771915435791001

>  <r_i_glide_gscore>  (1) 
-6.0069800552547399

>  <r_i_glide_hbond>  (1) 
0

>  <r_i_glide_ligand_efficiency>  (1) 
-0.222480742787213

>  <r_i_glide_ligand_efficiency_ln>  (1) 
-1.3983259240572601

>  <r_i_glide_ligand_efficiency_sa>  (1) 
-0.66744222762837802

>  <r_i_glide_lipo>  (1) 
-2.7812676340401898

>  <r_i_glide_metal>  (1) 
-0

>  <r_i_glide_rewards>  (1) 
-1.46006756556099

>  <r_lp_Energy>  (1) 
35.152299999999997

>  <r_lp_tautomer_probability>  (1) 
1

>  <r_sd_LogP>  (1) 
3.6419999999999999

>  <r_sd_LogS>  (1) 
-4.8010000000000002

>  <r_sd_PSA>  (1) 
67.010000000000005

>  <i_i_glide_confnum>  (1) 
160

>  <i_i_glide_lignum>  (1) 
1114373

>  <i_i_glide_posenum>  (1) 
256

>  <i_i_glide_rotatable_bonds>  (1) 
5

>  <i_lp_mmshare_version>  (1) 
41011

>  <i_m_ct_enhanced_stereo_status>  (1) 
0

>  <i_m_ct_format>  (1) 
2

>  <i_m_source_file_index>  (1) 
1062100

>  <i_sd_chiral_flag>  (1) 
0

>  <i_sd_hb\_acceptors>  (1) 
3

>  <i_sd_hb\_donors>  (1) 
2

>  <i_sd_heavy\_atoms>  (1) 
27

>  <i_sd_i\_f3d\_flags>  (1) 
0

>  <i_sd_rotating\_bonds>  (1) 
4

>  <i_sd_version>  (1) 
0

>  <b_lp_Chiralities_Consistent>  (1) 
1

>  <b_sd_chiral_flag>  (1) 
1

$$$$
