BDB50192686-4-0000
     RDKit          3D

 25 27  0  0  1  0  0  0  0  0999 V2000
   34.2885   34.9928   95.5698 O   0  0  0  0  0  0  0  0  0  0  0  0
   34.8465   31.6123   92.5027 C   0  0  0  0  0  0  0  0  0  0  0  0
   34.4060   33.0110   91.9761 C   0  0  2  0  0  0  0  0  0  0  0  0
   35.0767   30.5901   91.3536 C   0  0  0  0  0  0  0  0  0  0  0  0
   33.0849   32.7812   91.1839 C   0  0  0  0  0  0  0  0  0  0  0  0
   35.4943   33.4702   90.9543 C   0  0  0  0  0  0  0  0  0  0  0  0
   34.7318   31.2252   89.9667 C   0  0  1  0  0  0  0  0  0  0  0  0
   33.2639   31.7571   90.0272 C   0  0  0  0  0  0  0  0  0  0  0  0
   35.6649   32.4612   89.7814 C   0  0  0  0  0  0  0  0  0  0  0  0
   34.9156   30.2380   88.7784 C   0  0  0  0  0  0  0  0  0  0  0  0
   35.7154   29.1833   88.9333 N   0  0  0  0  0  0  0  0  0  0  0  0
   34.3544   30.4322   87.7035 O   0  0  0  0  0  0  0  0  0  0  0  0
   34.2522   33.9252   93.1103 N   0  0  0  0  0  0  0  0  0  0  0  0
   33.9756   35.2435   93.1301 C   0  0  0  0  0  0  0  0  0  0  0  0
   33.7152   35.8951   92.1191 O   0  0  0  0  0  0  0  0  0  0  0  0
   33.9845   35.9392   94.5216 C   0  0  0  0  0  0  0  0  0  0  0  0
   34.9153   37.1777   94.5633 C   0  0  0  0  0  0  0  0  0  0  0  0
   32.5745   36.4603   94.8652 C   0  0  0  0  0  0  0  0  0  0  0  0
   35.5887   34.6692   95.9254 C   0  0  0  0  0  0  0  0  0  0  0  0
   36.7023   34.7022   95.0670 C   0  0  0  0  0  0  0  0  0  0  0  0
   37.9831   34.4853   95.5689 C   0  0  0  0  0  0  0  0  0  0  0  0
   38.1439   34.2004   96.9202 C   0  0  0  0  0  0  0  0  0  0  0  0
   37.0429   34.0639   97.7522 C   0  0  0  0  0  0  0  0  0  0  0  0
   35.7686   34.2945   97.2509 C   0  0  0  0  0  0  0  0  0  0  0  0
   39.7153   34.0644   97.5996 Cl  0  0  0  0  0  0  0  0  0  0  0  0
 16  1  1  0
  1 19  1  0
  2  3  1  0
  2  4  1  0
  3  5  1  0
  3 13  1  1
  3  6  1  0
  4  7  1  0
  5  8  1  0
  6  9  1  0
  7  8  1  0
  7  9  1  0
  7 10  1  6
 10 11  1  0
 10 12  2  0
 13 14  1  0
 14 15  2  0
 14 16  1  0
 16 17  1  0
 16 18  1  0
 19 20  2  0
 19 24  1  0
 20 21  1  0
 21 22  2  0
 22 23  1  0
 22 25  1  0
 23 24  2  0
M  END
>  <Name>  (1) 
BDB50192686

>  <Target>  (1) 
11-beta-Hydroxysteroid Dehydrogenase 1 (11-beta-HSD1)

>  <IC50_in_nM>  (1) 
 450

>  <Kd_from_ITC>  (1) 
false

>  <Uniprot_ID>  (1) 
P28845

>  <source_organism>  (1) 
Homo sapiens

>  <SourceTag>  (1) 
11betaHSD1

>  <s_i_glide_gridfile>  (1) 
11betahsd1_glide-grid

>  <i_i_glide_lignum>  (1) 
5

>  <i_i_glide_rotatable_bonds>  (1) 
6

>  <r_i_docking_score>  (1) 
-9.69046990108318

>  <r_i_glide_ligand_efficiency>  (1) 
-0.387618796043327

>  <r_i_glide_ligand_efficiency_sa>  (1) 
-1.13340423407931

>  <r_i_glide_ligand_efficiency_ln>  (1) 
-2.29693176650581

>  <r_i_glide_gscore>  (1) 
-9.69046990108318

>  <r_i_glide_lipo>  (1) 
-4.75490866519214

>  <r_i_glide_hbond>  (1) 
-0.163947146689681

>  <r_i_glide_metal>  (1) 
-0

>  <r_i_glide_rewards>  (1) 
-2.10864805920312

>  <r_i_glide_evdw>  (1) 
-48.0134811401367

>  <r_i_glide_ecoul>  (1) 
-5.60049915313721

>  <r_i_glide_erotb>  (1) 
0.577782899979166

>  <r_i_glide_esite>  (1) 
0

>  <r_i_glide_emodel>  (1) 
-82.1606062950934

>  <r_i_glide_energy>  (1) 
-53.6139802932739

>  <r_i_glide_einternal>  (1) 
3.0081672668457

>  <i_i_glide_confnum>  (1) 
4

>  <i_i_glide_posenum>  (1) 
98

>  <r_i_glide_eff_state_penalty>  (1) 
0

$$$$
