BDB50195497-34-0000
     RDKit          3D

 26 28  0  0  1  0  0  0  0  0999 V2000
   34.8534   34.4231   91.6863 C   0  0  0  0  0  0  0  0  0  0  0  0
   36.0496   34.0753   91.0710 C   0  0  0  0  0  0  0  0  0  0  0  0
   36.0821   33.1711   90.0270 C   0  0  0  0  0  0  0  0  0  0  0  0
   34.8908   32.5802   89.5736 C   0  0  0  0  0  0  0  0  0  0  0  0
   33.6694   32.9522   90.1635 C   0  0  0  0  0  0  0  0  0  0  0  0
   33.6571   33.8753   91.2117 C   0  0  0  0  0  0  0  0  0  0  0  0
   37.6386   32.8632   89.3523 Cl  0  0  0  0  0  0  0  0  0  0  0  0
   32.1569   32.2926   89.6294 Cl  0  0  0  0  0  0  0  0  0  0  0  0
   34.9154   31.6293   88.5521 N   0  0  0  0  0  0  0  0  0  0  0  0
   34.8606   35.3696   92.8546 C   0  0  0  0  0  0  0  0  0  0  0  0
   34.3376   36.4638   92.6808 O   0  0  0  0  0  0  0  0  0  0  0  0
   35.3991   34.9538   94.0422 N   0  0  0  0  0  0  0  0  0  0  0  0
   35.7757   33.5241   94.1901 C   0  0  1  0  0  0  0  0  0  0  0  0
   36.7697   33.2698   95.3528 C   0  0  0  0  0  0  0  0  0  0  0  0
   36.9800   34.3559   96.3048 N   0  0  0  0  0  0  0  0  0  0  0  0
   35.7579   35.1099   96.5471 C   0  0  0  0  0  0  0  0  0  0  0  0
   35.1588   35.7743   95.2733 C   0  0  2  0  0  0  0  0  0  0  0  0
   34.5226   32.7197   94.4405 C   0  0  0  0  0  0  0  0  0  0  0  0
   33.7012   36.2016   95.5898 C   0  0  0  0  0  0  0  0  0  0  0  0
   38.0233   34.2920   97.2160 C   0  0  0  0  0  0  0  0  0  0  0  0
   39.3505   34.3646   96.7887 C   0  0  0  0  0  0  0  0  0  0  0  0
   40.3498   34.4638   97.7524 C   0  0  0  0  0  0  0  0  0  0  0  0
   40.0664   34.3721   99.1010 C   0  0  0  0  0  0  0  0  0  0  0  0
   38.7435   34.1852   99.4466 C   0  0  0  0  0  0  0  0  0  0  0  0
   37.7261   34.1541   98.5368 N   0  0  0  0  0  0  0  0  0  0  0  0
   39.7153   34.3693   95.4451 N   0  0  0  0  0  0  0  0  0  0  0  0
  1  6  1  0
  1  2  2  0
  1 10  1  0
  2  3  1  0
  3  7  1  0
  3  4  2  0
  4  9  1  0
  4  5  1  0
  5  8  1  0
  5  6  2  0
 10 11  2  0
 10 12  1  0
 12 17  1  0
 12 13  1  0
 13 14  1  0
 13 18  1  1
 14 15  1  0
 15 16  1  0
 15 20  1  0
 16 17  1  0
 17 19  1  1
 20 21  2  0
 20 25  1  0
 21 22  1  0
 21 26  1  0
 22 23  2  0
 23 24  1  0
 24 25  2  0
M  END
>  <Name>  (1) 
BDB50195497

>  <Target>  (1) 
11-beta-Hydroxysteroid Dehydrogenase 1 (11-beta-HSD1)

>  <Ki_in_nM>  (1) 
15

>  <IC50_in_nM>  (1) 
 370

>  <Kd_from_ITC>  (1) 
false

>  <Uniprot_ID>  (1) 
P28845

>  <source_organism>  (1) 
Homo sapiens

>  <SourceTag>  (1) 
11betaHSD1

>  <s_i_glide_gridfile>  (1) 
11betahsd1_glide-grid

>  <i_i_glide_lignum>  (1) 
35

>  <i_i_glide_rotatable_bonds>  (1) 
3

>  <r_i_docking_score>  (1) 
-9.73400308544027

>  <r_i_glide_ligand_efficiency>  (1) 
-0.374384734055395

>  <r_i_glide_ligand_efficiency_sa>  (1) 
-1.10911330150631

>  <r_i_glide_ligand_efficiency_ln>  (1) 
-2.28599868474639

>  <r_i_glide_gscore>  (1) 
-9.73400308544027

>  <r_i_glide_lipo>  (1) 
-4.55746746710105

>  <r_i_glide_hbond>  (1) 
-0.448470669275801

>  <r_i_glide_metal>  (1) 
-0

>  <r_i_glide_rewards>  (1) 
-2.47578079467632

>  <r_i_glide_evdw>  (1) 
-23.8783683776855

>  <r_i_glide_ecoul>  (1) 
-9.16271209716797

>  <r_i_glide_erotb>  (1) 
0.377115709736422

>  <r_i_glide_esite>  (1) 
-0.0610746306640542

>  <r_i_glide_emodel>  (1) 
-35.3964869300052

>  <r_i_glide_energy>  (1) 
-33.0410804748535

>  <r_i_glide_einternal>  (1) 
23.3473663330078

>  <i_i_glide_confnum>  (1) 
82

>  <i_i_glide_posenum>  (1) 
91

>  <r_i_glide_eff_state_penalty>  (1) 
0

$$$$
