BDB50294771-3-0000
     RDKit          3D

 27 30  0  0  1  0  0  0  0  0999 V2000
   33.7910   35.6397   94.9678 C   0  0  0  0  0  0  0  0  0  0  0  0
   33.7506   34.9718   96.3618 C   0  0  0  0  0  0  0  0  0  0  0  0
   33.4627   36.0590   97.3843 C   0  0  0  0  0  0  0  0  0  0  0  0
   32.7047   37.1258   96.6044 C   0  0  0  0  0  0  0  0  0  0  0  0
   32.6559   36.6638   95.1354 C   0  0  0  0  0  0  0  0  0  0  0  0
   35.9648   30.4251   89.6477 C   0  0  0  0  0  0  0  0  0  0  0  0
   36.1224   31.9613   89.7571 C   0  0  1  0  0  0  0  0  0  0  0  0
   34.6862   29.9400   90.3653 C   0  0  2  0  0  0  0  0  0  0  0  0
   34.8549   32.6074   89.1296 C   0  0  0  0  0  0  0  0  0  0  0  0
   33.4675   30.6518   89.7412 C   0  0  0  0  0  0  0  0  0  0  0  0
   33.5353   32.1938   89.8720 C   0  0  1  0  0  0  0  0  0  0  0  0
   34.7799   30.3743   91.8465 C   0  0  0  0  0  0  0  0  0  0  0  0
   34.9100   31.9041   92.0413 C   0  0  1  0  0  0  0  0  0  0  0  0
   36.1900   32.3288   91.2634 C   0  0  0  0  0  0  0  0  0  0  0  0
   33.6825   32.6236   91.3781 C   0  0  1  0  0  0  0  0  0  0  0  0
   33.8047   34.0808   91.3935 N   0  0  0  0  0  0  0  0  0  0  0  0
   33.7034   34.9682   92.3870 C   0  0  0  0  0  0  0  0  0  0  0  0
   33.5030   34.5566   93.8571 C   0  0  0  0  0  0  0  0  0  0  0  0
   33.7154   36.1455   92.0756 O   0  0  0  0  0  0  0  0  0  0  0  0
   35.1079   36.4526   94.7386 C   0  0  0  0  0  0  0  0  0  0  0  0
   36.4408   35.7216   94.7489 C   0  0  0  0  0  0  0  0  0  0  0  0
   36.4716   34.4193   95.0594 N   0  0  0  0  0  0  0  0  0  0  0  0
   37.4449   36.3862   94.5525 O   0  0  0  0  0  0  0  0  0  0  0  0
   37.6636   33.6717   95.4190 C   0  0  0  0  0  0  0  0  0  0  0  0
   38.4287   34.2792   96.6204 C   0  0  0  0  0  0  0  0  0  0  0  0
   37.5839   34.4577   97.9002 C   0  0  0  0  0  0  0  0  0  0  0  0
   39.7154   33.5224   96.8817 C   0  0  0  0  0  0  0  0  0  0  0  0
  1  5  1  0
  1  2  1  0
  1 18  1  0
  1 20  1  0
  2  3  1  0
  3  4  1  0
  4  5  1  0
  7  6  1  1
  8  6  1  6
  7 14  1  0
  7  9  1  0
  8 12  1  0
  8 10  1  0
 11  9  1  6
 10 11  1  0
 11 15  1  0
 13 12  1  6
 13 15  1  0
 13 14  1  0
 15 16  1  6
 16 17  1  0
 17 18  1  0
 17 19  2  0
 20 21  1  0
 21 22  1  0
 21 23  2  0
 22 24  1  0
 24 25  1  0
 25 26  1  0
 25 27  1  0
M  END
>  <Name>  (1) 
BDB50294771

>  <Target>  (1) 
11-beta-Hydroxysteroid Dehydrogenase 1 (11-beta-HSD1)

>  <IC50_in_nM>  (1) 
 9

>  <Kd_from_ITC>  (1) 
false

>  <Uniprot_ID>  (1) 
P28845

>  <source_organism>  (1) 
Homo sapiens

>  <SourceTag>  (1) 
11betaHSD1

>  <s_i_glide_gridfile>  (1) 
11betahsd1_glide-grid

>  <i_i_glide_lignum>  (1) 
4

>  <i_i_glide_rotatable_bonds>  (1) 
9

>  <r_i_docking_score>  (1) 
-7.49319065815426

>  <r_i_glide_ligand_efficiency>  (1) 
-0.277525579931639

>  <r_i_glide_ligand_efficiency_sa>  (1) 
-0.832576738880239

>  <r_i_glide_ligand_efficiency_ln>  (1) 
-1.74429125031554

>  <r_i_glide_gscore>  (1) 
-7.49319065815426

>  <r_i_glide_lipo>  (1) 
-5.60999916557054

>  <r_i_glide_hbond>  (1) 
-0.312808500191089

>  <r_i_glide_metal>  (1) 
-0

>  <r_i_glide_rewards>  (1) 
0.335362495601402

>  <r_i_glide_evdw>  (1) 
-36.590705871582

>  <r_i_glide_ecoul>  (1) 
-5.01061582565308

>  <r_i_glide_erotb>  (1) 
0.675382179433023

>  <r_i_glide_esite>  (1) 
0

>  <r_i_glide_emodel>  (1) 
-47.0898624952531

>  <r_i_glide_energy>  (1) 
-41.6013216972351

>  <r_i_glide_einternal>  (1) 
6.85052871704102

>  <i_i_glide_confnum>  (1) 
137

>  <i_i_glide_posenum>  (1) 
95

>  <r_i_glide_eff_state_penalty>  (1) 
0

$$$$
