BDB50294781-0-0000
     RDKit          3D

 26 29  0  0  1  0  0  0  0  0999 V2000
   34.8213   31.3227   88.9025 C   0  0  0  0  0  0  0  0  0  0  0  0
   35.8618   30.7389   89.8873 C   0  0  2  0  0  0  0  0  0  0  0  0
   33.9213   32.3727   89.5870 C   0  0  1  0  0  0  0  0  0  0  0  0
   35.1063   30.1113   91.0781 C   0  0  0  0  0  0  0  0  0  0  0  0
   33.2003   31.6744   90.7753 C   0  0  0  0  0  0  0  0  0  0  0  0
   34.1984   31.1204   91.8466 C   0  0  2  0  0  0  0  0  0  0  0  0
   34.8449   33.4958   90.1422 C   0  0  0  0  0  0  0  0  0  0  0  0
   35.8697   32.9713   91.2009 C   0  0  2  0  0  0  0  0  0  0  0  0
   36.7086   31.8968   90.4556 C   0  0  0  0  0  0  0  0  0  0  0  0
   35.0456   32.3308   92.3759 C   0  0  1  0  0  0  0  0  0  0  0  0
   34.1623   33.3505   92.9663 N   0  0  0  0  0  0  0  0  0  0  0  0
   34.5441   34.3030   93.8336 C   0  0  0  0  0  0  0  0  0  0  0  0
   33.5640   35.4819   93.9741 C   0  0  0  0  0  0  0  0  0  0  0  0
   35.6350   34.2939   94.3992 O   0  0  0  0  0  0  0  0  0  0  0  0
   33.6107   36.4039   95.2412 C   0  0  0  0  0  0  0  0  0  0  0  0
   33.0681   35.6330   96.4808 C   0  0  0  0  0  0  0  0  0  0  0  0
   35.0201   36.9737   95.5107 C   0  0  0  0  0  0  0  0  0  0  0  0
   32.6817   37.5947   94.9318 C   0  0  0  0  0  0  0  0  0  0  0  0
   32.9162   36.4055   97.7997 C   0  0  0  0  0  0  0  0  0  0  0  0
   34.0392   36.8644   98.3839 O   0  0  0  0  0  0  0  0  0  0  0  0
   33.6072   37.5250   99.5393 N   0  0  0  0  0  0  0  0  0  0  0  0
   32.3235   37.2638   99.5828 C   0  0  0  0  0  0  0  0  0  0  0  0
   31.8542   36.5862   98.5522 N   0  0  0  0  0  0  0  0  0  0  0  0
   31.4347   37.7477  100.7289 C   0  0  0  0  0  0  0  0  0  0  0  0
   30.3805   36.6977  101.1439 C   0  0  0  0  0  0  0  0  0  0  0  0
   32.2157   38.2432  101.9659 C   0  0  0  0  0  0  0  0  0  0  0  0
  3  1  1  1
  2  1  1  6
  2  4  1  0
  2  9  1  0
  3  5  1  0
  3  7  1  0
  6  4  1  6
  5  6  1  0
  6 10  1  0
  8  7  1  6
  8 10  1  0
  8  9  1  0
 10 11  1  6
 11 12  1  0
 12 13  1  0
 12 14  2  0
 15 13  1  0
 15 16  1  0
 15 17  1  0
 15 18  1  0
 16 19  1  0
 19 20  1  0
 19 23  2  0
 20 21  1  0
 21 22  2  0
 22 23  1  0
 22 24  1  0
 24 25  1  0
 24 26  1  0
M  END
>  <Name>  (1) 
BDB50294781

>  <Target>  (1) 
11-beta-Hydroxysteroid Dehydrogenase 1 (11-beta-HSD1)

>  <IC50_in_nM>  (1) 
 8

>  <Kd_from_ITC>  (1) 
false

>  <Uniprot_ID>  (1) 
P28845

>  <source_organism>  (1) 
Homo sapiens

>  <SourceTag>  (1) 
11betaHSD1

>  <s_i_glide_gridfile>  (1) 
11betahsd1_glide-grid

>  <i_i_glide_lignum>  (1) 
1

>  <i_i_glide_rotatable_bonds>  (1) 
7

>  <r_i_docking_score>  (1) 
-8.29238018003718

>  <r_i_glide_ligand_efficiency>  (1) 
-0.318937699232199

>  <r_i_glide_ligand_efficiency_sa>  (1) 
-0.944851679016144

>  <r_i_glide_ligand_efficiency_ln>  (1) 
-1.94743827576305

>  <r_i_glide_gscore>  (1) 
-8.29238018003718

>  <r_i_glide_lipo>  (1) 
-4.23220746186064

>  <r_i_glide_hbond>  (1) 
-0.32

>  <r_i_glide_metal>  (1) 
-0

>  <r_i_glide_rewards>  (1) 
-2.57065233891693

>  <r_i_glide_evdw>  (1) 
-28.3454513549805

>  <r_i_glide_ecoul>  (1) 
-2.26934289932251

>  <r_i_glide_erotb>  (1) 
0.741548528389799

>  <r_i_glide_esite>  (1) 
-0.153394905002011

>  <r_i_glide_emodel>  (1) 
-44.8914634082995

>  <r_i_glide_energy>  (1) 
-30.614794254303

>  <r_i_glide_einternal>  (1) 
3.53901934623718

>  <i_i_glide_confnum>  (1) 
10

>  <i_i_glide_posenum>  (1) 
165

>  <r_i_glide_eff_state_penalty>  (1) 
0

$$$$
