BDB29843-38-0000
     RDKit          3D

 27 29  0  0  1  0  0  0  0  0999 V2000
   34.4626   35.4418   96.4911 C   0  0  0  0  0  0  0  0  0  0  0  0
   33.4940   36.4292   96.7687 C   0  0  0  0  0  0  0  0  0  0  0  0
   33.3003   37.4888   95.9005 C   0  0  0  0  0  0  0  0  0  0  0  0
   34.1235   37.6625   94.8066 C   0  0  0  0  0  0  0  0  0  0  0  0
   35.1328   36.7505   94.5601 C   0  0  0  0  0  0  0  0  0  0  0  0
   35.3089   35.6278   95.3760 C   0  0  0  0  0  0  0  0  0  0  0  0
   34.5536   34.1920   97.3529 C   0  0  0  0  0  0  0  0  0  0  0  0
   32.5160   36.4639   98.1856 Cl  0  0  0  0  0  0  0  0  0  0  0  0
   36.6575   34.5369   94.8588 S   0  0  0  0  0  0  0  0  0  0  0  0
   36.1825   34.3271   93.3759 N   0  0  0  0  0  0  0  0  0  0  0  0
   35.1809   33.4908   92.9805 C   0  0  0  0  0  0  0  0  0  0  0  0
   33.9101   31.4359   93.0439 C   0  0  0  0  0  0  0  0  0  0  0  0
   34.8866   32.2600   93.5911 C   0  0  0  0  0  0  0  0  0  0  0  0
   34.5080   33.8821   91.8612 N   0  0  0  0  0  0  0  0  0  0  0  0
   33.5557   33.0734   91.3332 C   0  0  0  0  0  0  0  0  0  0  0  0
   33.2279   31.8530   91.9137 C   0  0  0  0  0  0  0  0  0  0  0  0
   36.6655   33.3415   95.7074 O   0  0  0  0  0  0  0  0  0  0  0  0
   37.8375   35.4018   94.9492 O   0  0  0  0  0  0  0  0  0  0  0  0
   32.9597   33.4878   89.9886 C   0  0  0  0  0  0  0  0  0  0  0  0
   33.0494   32.3358   88.9565 C   0  0  0  0  0  0  0  0  0  0  0  0
   34.2623   31.8322   88.5975 N   0  0  0  0  0  0  0  0  0  0  0  0
   31.9889   31.8601   88.5455 O   0  0  0  0  0  0  0  0  0  0  0  0
   35.5412   32.3934   89.0577 C   0  0  0  0  0  0  0  0  0  0  0  0
   34.3996   30.5440   87.8892 C   0  0  0  0  0  0  0  0  0  0  0  0
   34.8036   29.5235   88.9734 C   0  0  0  0  0  0  0  0  0  0  0  0
   36.1418   29.8991   89.6440 C   0  0  0  0  0  0  0  0  0  0  0  0
   36.2078   31.3907   90.0455 C   0  0  0  0  0  0  0  0  0  0  0  0
  1  2  2  0
  1  6  1  0
  1  7  1  0
  2  3  1  0
  2  8  1  0
  3  4  2  0
  4  5  1  0
  5  6  2  0
  6  9  1  0
  9 10  1  0
  9 17  2  0
  9 18  2  0
 10 11  1  0
 11 13  1  0
 11 14  2  0
 12 13  2  0
 12 16  1  0
 14 15  1  0
 15 16  2  0
 15 19  1  0
 19 20  1  0
 20 21  1  0
 20 22  2  0
 21 23  1  0
 21 24  1  0
 23 27  1  0
 24 25  1  0
 25 26  1  0
 26 27  1  0
M  CHG  1  10  -1
M  END
>  <Name>  (1) 
BDB29843

>  <Target>  (1) 
11-beta-Hydroxysteroid Dehydrogenase 1 (11-beta-HSD1)

>  <Ki_in_nM>  (1) 
169

>  <Kd_from_ITC>  (1) 
false

>  <Uniprot_ID>  (1) 
P28845

>  <source_organism>  (1) 
Homo sapiens (human)

>  <SourceTag>  (1) 
11betaHSD1

>  <s_i_glide_gridfile>  (1) 
11betahsd1_glide-grid

>  <i_i_glide_lignum>  (1) 
39

>  <i_i_glide_rotatable_bonds>  (1) 
6

>  <r_i_docking_score>  (1) 
-8.42573142764539

>  <r_i_glide_ligand_efficiency>  (1) 
-0.312064126949829

>  <r_i_glide_ligand_efficiency_sa>  (1) 
-0.936192379820976

>  <r_i_glide_ligand_efficiency_ln>  (1) 
-1.96137136731693

>  <r_i_glide_gscore>  (1) 
-8.42573142764539

>  <r_i_glide_lipo>  (1) 
-4.85060918222258

>  <r_i_glide_hbond>  (1) 
0

>  <r_i_glide_metal>  (1) 
-0

>  <r_i_glide_rewards>  (1) 
-1.72237266458724

>  <r_i_glide_evdw>  (1) 
-41.850040435791

>  <r_i_glide_ecoul>  (1) 
-3.15284204483032

>  <r_i_glide_erotb>  (1) 
0.712678747678534

>  <r_i_glide_esite>  (1) 
0

>  <r_i_glide_emodel>  (1) 
-51.5574701320253

>  <r_i_glide_energy>  (1) 
-45.0028824806213

>  <r_i_glide_einternal>  (1) 
12.2958250045776

>  <i_i_glide_confnum>  (1) 
150

>  <i_i_glide_posenum>  (1) 
169

>  <r_i_glide_eff_state_penalty>  (1) 
0

$$$$
