BDB50174285-18-0000
     RDKit          3D

 59 62  0  0  1  0  0  0  0  0999 V2000
   34.2714   31.4759   92.6255 C   0  0  0  0  0  0  0  0  0  0  0  0
   35.3440   30.7962   91.7428 C   0  0  0  0  0  0  0  0  0  0  0  0
   32.5911   32.5864   90.2676 C   0  0  0  0  0  0  0  0  0  0  0  0
   33.4686   32.2661   89.0428 C   0  0  0  0  0  0  0  0  0  0  0  0
   34.8826   31.7193   89.3357 C   0  0  0  0  0  0  0  0  0  0  0  0
   34.9525   30.4942   90.2757 C   0  0  0  0  0  0  0  0  0  0  0  0
   34.1013   32.8986   92.3185 N   0  0  0  0  0  0  0  0  0  0  0  0
   34.6328   34.0382   92.9203 C   0  0  0  0  0  0  0  0  0  0  0  0
   34.1455   35.1178   92.3645 N   0  0  0  0  0  0  0  0  0  0  0  0
   33.3147   34.7134   91.3523 N   0  0  0  0  0  0  0  0  0  0  0  0
   33.3154   33.4119   91.3148 C   0  0  0  0  0  0  0  0  0  0  0  0
   36.7037   33.1121   94.1353 C   0  0  0  0  0  0  0  0  0  0  0  0
   35.5472   34.1401   94.1386 C   0  0  1  0  0  0  0  0  0  0  0  0
   37.5232   33.2114   95.4396 C   0  0  0  0  0  0  0  0  0  0  0  0
   36.2229   35.5498   94.2614 C   0  0  0  0  0  0  0  0  0  0  0  0
   34.7254   33.8854   95.4172 C   0  0  0  0  0  0  0  0  0  0  0  0
   37.0504   34.3577   96.3730 C   0  0  1  0  0  0  0  0  0  0  0  0
   37.0927   35.6638   95.5408 C   0  0  0  0  0  0  0  0  0  0  0  0
   35.5506   34.1120   96.6974 C   0  0  0  0  0  0  0  0  0  0  0  0
   37.8398   34.4117   97.7064 C   0  0  0  0  0  0  0  0  0  0  0  0
   39.3795   34.4319   97.6200 C   0  0  0  0  0  0  0  0  0  0  0  0
   40.0836   34.4583   98.9923 C   0  0  0  0  0  0  0  0  0  0  0  0
   39.7060   35.6438   99.9040 C   0  0  0  0  0  0  0  0  0  0  0  0
   40.6080   35.7493  101.1409 C   0  0  0  0  0  0  0  0  0  0  0  0
   34.4626   31.3481   93.6875 H   0  0  0  0  0  0  0  0  0  0  0  0
   33.3154   30.9764   92.4856 H   0  0  0  0  0  0  0  0  0  0  0  0
   36.2655   31.3797   91.7524 H   0  0  0  0  0  0  0  0  0  0  0  0
   35.6040   29.8494   92.2182 H   0  0  0  0  0  0  0  0  0  0  0  0
   32.1933   31.6655   90.6907 H   0  0  0  0  0  0  0  0  0  0  0  0
   31.7154   33.1254   89.9103 H   0  0  0  0  0  0  0  0  0  0  0  0
   33.5750   33.1725   88.4437 H   0  0  0  0  0  0  0  0  0  0  0  0
   32.9354   31.5584   88.4063 H   0  0  0  0  0  0  0  0  0  0  0  0
   35.5229   32.5194   89.7114 H   0  0  0  0  0  0  0  0  0  0  0  0
   35.3166   31.4416   88.3748 H   0  0  0  0  0  0  0  0  0  0  0  0
   35.7106   29.8170   89.8779 H   0  0  0  0  0  0  0  0  0  0  0  0
   34.0241   29.9241   90.2343 H   0  0  0  0  0  0  0  0  0  0  0  0
   37.3154   33.2585   93.2588 H   0  0  0  0  0  0  0  0  0  0  0  0
   36.3631   32.0868   94.0530 H   0  0  0  0  0  0  0  0  0  0  0  0
   38.5894   33.2518   95.2163 H   0  0  0  0  0  0  0  0  0  0  0  0
   37.3154   32.2960   95.9667 H   0  0  0  0  0  0  0  0  0  0  0  0
   36.8353   35.7525   93.3809 H   0  0  0  0  0  0  0  0  0  0  0  0
   35.4661   36.3363   94.2820 H   0  0  0  0  0  0  0  0  0  0  0  0
   33.7789   34.4293   95.4360 H   0  0  0  0  0  0  0  0  0  0  0  0
   34.5154   32.8202   95.4021 H   0  0  0  0  0  0  0  0  0  0  0  0
   36.6763   36.4638   96.1458 H   0  0  0  0  0  0  0  0  0  0  0  0
   38.1153   35.9469   95.2912 H   0  0  0  0  0  0  0  0  0  0  0  0
   35.4272   33.2609   97.3523 H   0  0  0  0  0  0  0  0  0  0  0  0
   35.1411   34.9607   97.2489 H   0  0  0  0  0  0  0  0  0  0  0  0
   37.5590   33.5599   98.3237 H   0  0  0  0  0  0  0  0  0  0  0  0
   37.4829   35.2638   98.2686 H   0  0  0  0  0  0  0  0  0  0  0  0
   39.7196   35.2638   97.0077 H   0  0  0  0  0  0  0  0  0  0  0  0
   39.7154   33.5350   97.1016 H   0  0  0  0  0  0  0  0  0  0  0  0
   41.1594   34.4637   98.8208 H   0  0  0  0  0  0  0  0  0  0  0  0
   39.8788   33.5254   99.5200 H   0  0  0  0  0  0  0  0  0  0  0  0
   38.6723   35.5396  100.2346 H   0  0  0  0  0  0  0  0  0  0  0  0
   39.7496   36.5824   99.3523 H   0  0  0  0  0  0  0  0  0  0  0  0
   40.3083   36.5868  101.7715 H   0  0  0  0  0  0  0  0  0  0  0  0
   41.6502   35.9048  100.8597 H   0  0  0  0  0  0  0  0  0  0  0  0
   40.5564   34.8440  101.7469 H   0  0  0  0  0  0  0  0  0  0  0  0
  1  7  1  0
  1  2  1  0
  1 25  1  0
  1 26  1  0
  2  6  1  0
  2 27  1  0
  2 28  1  0
  3 11  1  0
  3  4  1  0
  3 29  1  0
  3 30  1  0
  4  5  1  0
  4 31  1  0
  4 32  1  0
  5  6  1  0
  5 33  1  0
  5 34  1  0
  6 35  1  0
  6 36  1  0
  7  8  1  0
  7 11  1  0
 13  8  1  6
  8  9  2  0
  9 10  1  0
 10 11  2  0
 12 13  1  0
 12 14  1  0
 12 37  1  0
 12 38  1  0
 13 15  1  0
 13 16  1  0
 14 17  1  0
 14 39  1  0
 14 40  1  0
 15 18  1  0
 15 41  1  0
 15 42  1  0
 16 19  1  0
 16 43  1  0
 16 44  1  0
 17 18  1  0
 17 19  1  0
 17 20  1  1
 18 45  1  0
 18 46  1  0
 19 47  1  0
 19 48  1  0
 20 21  1  0
 20 49  1  0
 20 50  1  0
 21 22  1  0
 21 51  1  0
 21 52  1  0
 22 23  1  0
 22 53  1  0
 22 54  1  0
 23 24  1  0
 23 55  1  0
 23 56  1  0
 24 57  1  0
 24 58  1  0
 24 59  1  0
M  END
>  <Name>  (1) 
BDB50174285

>  <Target>  (1) 
11-beta-Hydroxysteroid Dehydrogenase 1 (11-beta-HSD1)

>  <IC50_in_nM>  (1) 
 5

>  <Kd_from_ITC>  (1) 
false

>  <Uniprot_ID>  (1) 
P28845

>  <source_organism>  (1) 
Homo sapiens

>  <SourceTag>  (1) 
11betaHSD1

>  <s_i_glide_gridfile>  (1) 
11betahsd1_glide-grid

>  <i_i_glide_lignum>  (1) 
19

>  <i_i_glide_rotatable_bonds>  (1) 
5

>  <r_i_docking_score>  (1) 
-8.43915261360752

>  <r_i_glide_ligand_efficiency>  (1) 
-0.351631358900313

>  <r_i_glide_ligand_efficiency_sa>  (1) 
-1.01428035148669

>  <r_i_glide_ligand_efficiency_ln>  (1) 
-2.01987646791634

>  <r_i_glide_gscore>  (1) 
-8.43915261360752

>  <r_i_glide_lipo>  (1) 
-4.70778564197519

>  <r_i_glide_hbond>  (1) 
0

>  <r_i_glide_metal>  (1) 
-0

>  <r_i_glide_rewards>  (1) 
-2.83635739390989

>  <r_i_glide_evdw>  (1) 
-29.1971950531006

>  <r_i_glide_ecoul>  (1) 
-0.850306212902069

>  <r_i_glide_erotb>  (1) 
0.692396106867893

>  <r_i_glide_esite>  (1) 
0

>  <r_i_glide_emodel>  (1) 
-45.0362098489981

>  <r_i_glide_energy>  (1) 
-30.0475012660027

>  <r_i_glide_einternal>  (1) 
2.87784862518311

>  <i_i_glide_confnum>  (1) 
44

>  <i_i_glide_posenum>  (1) 
315

>  <r_i_glide_eff_state_penalty>  (1) 
0

$$$$
