BDB50306416-12-0000
     RDKit          3D

 27 32  0  0  1  0  0  0  0  0999 V2000
   34.6204   35.7512   96.0310 C   0  0  0  0  0  0  0  0  0  0  0  0
   35.1021   35.0693   97.3261 C   0  0  0  0  0  0  0  0  0  0  0  0
   35.9120   36.1581   95.2907 C   0  0  0  0  0  0  0  0  0  0  0  0
   35.3550   30.2426   89.9802 C   0  0  0  0  0  0  0  0  0  0  0  0
   35.5422   30.8496   91.3891 C   0  0  1  0  0  0  0  0  0  0  0  0
   34.4770   31.1477   89.0913 C   0  0  2  0  0  0  0  0  0  0  0  0
   36.2034   32.2480   91.2371 C   0  0  0  0  0  0  0  0  0  0  0  0
   35.1384   32.5423   89.0162 C   0  0  0  0  0  0  0  0  0  0  0  0
   35.3232   33.2266   90.3961 C   0  0  1  0  0  0  0  0  0  0  0  0
   33.1110   31.3250   89.7865 C   0  0  0  0  0  0  0  0  0  0  0  0
   33.2209   31.9701   91.1978 C   0  0  1  0  0  0  0  0  0  0  0  0
   34.1528   31.0395   92.0357 C   0  0  0  0  0  0  0  0  0  0  0  0
   33.9322   33.3539   91.0942 C   0  0  1  0  0  0  0  0  0  0  0  0
   34.0508   33.9405   92.4368 N   0  0  0  0  0  0  0  0  0  0  0  0
   33.7154   35.2100   92.7029 C   0  0  0  0  0  0  0  0  0  0  0  0
   33.3154   35.4637   93.9722 N   0  0  0  0  0  0  0  0  0  0  0  0
   33.7154   36.0638   91.8171 O   0  0  0  0  0  0  0  0  0  0  0  0
   33.7929   34.7471   95.1775 C   0  0  0  0  0  0  0  0  0  0  0  0
   33.7076   36.9491   96.3852 C   0  0  0  0  0  0  0  0  0  0  0  0
   33.2636   37.6638   95.1124 C   0  0  0  0  0  0  0  0  0  0  0  0
   32.5154   36.6698   94.2349 C   0  0  0  0  0  0  0  0  0  0  0  0
   36.9574   35.2399   95.8532 C   0  0  0  0  0  0  0  0  0  0  0  0
   36.5440   34.7142   97.0698 C   0  0  0  0  0  0  0  0  0  0  0  0
   37.4724   34.0638   97.8847 C   0  0  0  0  0  0  0  0  0  0  0  0
   38.7736   33.8408   97.4402 C   0  0  0  0  0  0  0  0  0  0  0  0
   39.1416   34.2754   96.1806 C   0  0  0  0  0  0  0  0  0  0  0  0
   38.2565   35.0262   95.4274 C   0  0  0  0  0  0  0  0  0  0  0  0
  1  2  1  0
  1  3  1  0
  1 18  1  0
  1 19  1  0
  2 23  1  0
  3 22  1  0
  5  4  1  6
  6  4  1  1
  5  7  1  0
  5 12  1  0
  6  8  1  0
  6 10  1  0
  9  7  1  1
  8  9  1  0
  9 13  1  0
 11 10  1  6
 11 13  1  0
 11 12  1  0
 13 14  1  1
 14 15  1  0
 15 16  1  0
 15 17  2  0
 16 18  1  0
 16 21  1  0
 19 20  1  0
 20 21  1  0
 22 23  2  0
 22 27  1  0
 23 24  1  0
 24 25  2  0
 25 26  1  0
 26 27  2  0
M  END
>  <Name>  (1) 
BDB50306416

>  <Target>  (1) 
11-beta-Hydroxysteroid Dehydrogenase 1 (11-beta-HSD1)

>  <IC50_in_nM>  (1) 
 0.7

>  <Kd_from_ITC>  (1) 
false

>  <Uniprot_ID>  (1) 
P28845

>  <source_organism>  (1) 
Homo sapiens

>  <SourceTag>  (1) 
11betaHSD1

>  <s_i_glide_gridfile>  (1) 
11betahsd1_glide-grid

>  <i_i_glide_lignum>  (1) 
13

>  <i_i_glide_rotatable_bonds>  (1) 
3

>  <r_i_docking_score>  (1) 
-10.9371267844432

>  <r_i_glide_ligand_efficiency>  (1) 
-0.405078769794194

>  <r_i_glide_ligand_efficiency_sa>  (1) 
-1.21523630804751

>  <r_i_glide_ligand_efficiency_ln>  (1) 
-2.54598280279115

>  <r_i_glide_gscore>  (1) 
-10.9371267844432

>  <r_i_glide_lipo>  (1) 
-5.8989888711524

>  <r_i_glide_hbond>  (1) 
-0.243894037620632

>  <r_i_glide_metal>  (1) 
-0

>  <r_i_glide_rewards>  (1) 
-2.36605515426019

>  <r_i_glide_evdw>  (1) 
-37.5436248779297

>  <r_i_glide_ecoul>  (1) 
-6.56714296340942

>  <r_i_glide_erotb>  (1) 
0.434063966997885

>  <r_i_glide_esite>  (1) 
0

>  <r_i_glide_emodel>  (1) 
-55.7431809121348

>  <r_i_glide_energy>  (1) 
-44.1107678413391

>  <r_i_glide_einternal>  (1) 
3.16392993927002

>  <i_i_glide_confnum>  (1) 
10

>  <i_i_glide_posenum>  (1) 
1

>  <r_i_glide_eff_state_penalty>  (1) 
0

$$$$
