BDB50313286-10-0000
     RDKit          3D

 22 24  0  0  1  0  0  0  0  0999 V2000
   32.5377   30.3298   89.3172 C   0  0  0  0  0  0  0  0  0  0  0  0
   32.1720   30.8694   88.3317 N   0  0  0  0  0  0  0  0  0  0  0  0
   33.8881   30.7847   88.6588 C   0  0  1  0  0  0  0  0  0  0  0  0
   33.6943   31.1871   88.1743 C   0  0  2  0  0  0  0  0  0  0  0  0
   34.3129   30.0707   87.3978 C   0  0  0  0  0  0  0  0  0  0  0  0
   34.7276   32.4807   88.3666 C   0  0  0  0  0  0  0  0  0  0  0  0
   35.1225   31.6647   88.9845 N   0  0  0  0  0  0  0  0  0  0  0  0
   31.5215   32.2200   88.6866 C   0  0  0  0  0  0  0  0  0  0  0  0
   35.0650   33.1220   91.6237 C   0  0  0  0  0  0  0  0  0  0  0  0
   33.8857   32.7772   92.2881 C   0  0  0  0  0  0  0  0  0  0  0  0
   33.2801   33.6950   93.1485 C   0  0  0  0  0  0  0  0  0  0  0  0
   33.8448   34.9573   93.3604 C   0  0  0  0  0  0  0  0  0  0  0  0
   35.0249   35.2903   92.6907 C   0  0  0  0  0  0  0  0  0  0  0  0
   35.6432   34.3774   91.8394 C   0  0  0  0  0  0  0  0  0  0  0  0
   35.9087   31.9193   90.5628 S   0  0  0  0  0  0  0  0  0  0  0  0
   37.1364   32.5341   90.0700 O   0  0  0  0  0  0  0  0  0  0  0  0
   36.0375   30.6629   91.3064 O   0  0  0  0  0  0  0  0  0  0  0  0
   33.1569   35.9661   94.3011 C   0  0  0  0  0  0  0  0  0  0  0  0
   33.9448   36.4281   95.5736 C   0  0  0  0  0  0  0  0  0  0  0  0
   34.4709   35.2034   96.3208 C   0  0  0  0  0  0  0  0  0  0  0  0
   35.1449   37.3214   95.2153 C   0  0  0  0  0  0  0  0  0  0  0  0
   33.0138   37.1971   96.5387 C   0  0  0  0  0  0  0  0  0  0  0  0
  1  2  1  0
  4  1  1  1
  2  8  1  0
  2  3  1  0
  3  5  1  0
  3  6  1  6
  4  7  1  0
  4  5  1  0
  6  7  1  0
 15  7  1  0
  9 14  1  0
  9 15  1  0
  9 10  2  0
 10 11  1  0
 11 12  2  0
 12 13  1  0
 12 18  1  0
 13 14  2  0
 15 16  2  0
 15 17  2  0
 19 18  1  0
 19 20  1  0
 19 21  1  0
 19 22  1  0
M  END
>  <Name>  (1) 
BDB50313286

>  <Target>  (1) 
11-beta-Hydroxysteroid Dehydrogenase 1 (11-beta-HSD1)

>  <IC50_in_nM>  (1) 
 0.33

>  <Kd_from_ITC>  (1) 
false

>  <Uniprot_ID>  (1) 
P28845

>  <source_organism>  (1) 
Homo sapiens

>  <SourceTag>  (1) 
11betaHSD1

>  <s_i_glide_gridfile>  (1) 
11betahsd1_glide-grid

>  <i_i_glide_lignum>  (1) 
11

>  <i_i_glide_rotatable_bonds>  (1) 
4

>  <r_i_docking_score>  (1) 
-6.9271002325608

>  <r_i_glide_ligand_efficiency>  (1) 
-0.314868192389127

>  <r_i_glide_ligand_efficiency_sa>  (1) 
-0.882273058137654

>  <r_i_glide_ligand_efficiency_ln>  (1) 
-1.69323596895808

>  <r_i_glide_gscore>  (1) 
-6.9271002325608

>  <r_i_glide_lipo>  (1) 
-4.50043158440698

>  <r_i_glide_hbond>  (1) 
0

>  <r_i_glide_metal>  (1) 
-0

>  <r_i_glide_rewards>  (1) 
-1.91570850403538

>  <r_i_glide_evdw>  (1) 
-22.8094348907471

>  <r_i_glide_ecoul>  (1) 
0.599920690059662

>  <r_i_glide_erotb>  (1) 
0.539523496909967

>  <r_i_glide_esite>  (1) 
0

>  <r_i_glide_emodel>  (1) 
-35.030173761012

>  <r_i_glide_energy>  (1) 
-22.2095142006874

>  <r_i_glide_einternal>  (1) 
0.951564073562622

>  <i_i_glide_confnum>  (1) 
1

>  <i_i_glide_posenum>  (1) 
218

>  <r_i_glide_eff_state_penalty>  (1) 
0

$$$$
