BDB50216921-25-0000
     RDKit          3D

 21 25  0  0  1  0  0  0  0  0999 V2000
   35.1659   34.6810   95.1162 C   0  0  0  0  0  0  0  0  0  0  0  0
   35.6845   33.6544   96.1541 C   0  0  0  0  0  0  0  0  0  0  0  0
   37.1817   33.9347   96.3454 C   0  0  0  0  0  0  0  0  0  0  0  0
   37.5678   35.0137   95.3414 C   0  0  0  0  0  0  0  0  0  0  0  0
   36.2747   35.7434   94.9723 C   0  0  0  0  0  0  0  0  0  0  0  0
   34.9248   34.0384   93.9030 O   0  0  0  0  0  0  0  0  0  0  0  0
   33.7926   35.2637   95.4450 C   0  0  0  0  0  0  0  0  0  0  0  0
   32.9182   34.8737   94.4553 N   0  0  0  0  0  0  0  0  0  0  0  0
   33.6040   34.1979   93.6270 C   0  0  0  0  0  0  0  0  0  0  0  0
   33.5276   35.9535   96.4296 O   0  0  0  0  0  0  0  0  0  0  0  0
   34.8295   32.4687   88.7082 C   0  0  0  0  0  0  0  0  0  0  0  0
   35.8402   32.7933   89.8416 C   0  0  2  0  0  0  0  0  0  0  0  0
   33.6202   31.6481   89.2156 C   0  0  1  0  0  0  0  0  0  0  0  0
   36.3196   31.4568   90.4767 C   0  0  0  0  0  0  0  0  0  0  0  0
   34.1672   30.3365   89.8381 C   0  0  0  0  0  0  0  0  0  0  0  0
   35.1383   30.6059   91.0219 C   0  0  2  0  0  0  0  0  0  0  0  0
   32.9194   32.4670   90.3302 C   0  0  0  0  0  0  0  0  0  0  0  0
   33.8914   32.7832   91.5037 C   0  0  2  0  0  0  0  0  0  0  0  0
   35.0970   33.5928   90.9402 C   0  0  0  0  0  0  0  0  0  0  0  0
   34.3949   31.4403   92.1016 C   0  0  0  0  0  0  0  0  0  0  0  0
   33.1312   33.5620   92.4929 N   0  0  0  0  0  0  0  0  0  0  0  0
  1  5  1  0
  1  2  1  0
  1  6  1  0
  1  7  1  0
  2  3  1  0
  3  4  1  0
  4  5  1  0
  6  9  1  0
  7  8  1  0
  7 10  2  0
  8  9  2  0
  9 21  1  0
 12 11  1  6
 13 11  1  1
 12 14  1  0
 12 19  1  0
 13 15  1  0
 13 17  1  0
 16 14  1  6
 15 16  1  0
 16 20  1  0
 17 18  1  0
 18 20  1  0
 18 19  1  0
 18 21  1  1
M  END
>  <Name>  (1) 
BDB50216921

>  <Target>  (1) 
11-beta-Hydroxysteroid Dehydrogenase 1 (11-beta-HSD1)

>  <Ki_in_nM>  (1) 
4

>  <Kd_from_ITC>  (1) 
false

>  <Uniprot_ID>  (1) 
P28845

>  <source_organism>  (1) 
Homo sapiens

>  <SourceTag>  (1) 
11betaHSD1

>  <s_i_glide_gridfile>  (1) 
11betahsd1_glide-grid

>  <i_i_glide_lignum>  (1) 
26

>  <i_i_glide_rotatable_bonds>  (1) 
2

>  <r_i_docking_score>  (1) 
-9.29260443767993

>  <r_i_glide_ligand_efficiency>  (1) 
-0.442504973222854

>  <r_i_glide_ligand_efficiency_sa>  (1) 
-1.22083766755446

>  <r_i_glide_ligand_efficiency_ln>  (1) 
-2.29757766974104

>  <r_i_glide_gscore>  (1) 
-9.29260443767993

>  <r_i_glide_lipo>  (1) 
-4.09799590719304

>  <r_i_glide_hbond>  (1) 
-0.271898760327343

>  <r_i_glide_metal>  (1) 
-0

>  <r_i_glide_rewards>  (1) 
-2.97979207110415

>  <r_i_glide_evdw>  (1) 
-42.4248886108398

>  <r_i_glide_ecoul>  (1) 
-1.72771298885345

>  <r_i_glide_erotb>  (1) 
0.437483679814617

>  <r_i_glide_esite>  (1) 
0

>  <r_i_glide_emodel>  (1) 
-65.9794312431415

>  <r_i_glide_energy>  (1) 
-44.1526015996933

>  <r_i_glide_einternal>  (1) 
3.51982402801514

>  <i_i_glide_confnum>  (1) 
2

>  <i_i_glide_posenum>  (1) 
180

>  <r_i_glide_eff_state_penalty>  (1) 
0

$$$$
