BDB50273861-5-0000
     RDKit          3D

 27 30  0  0  1  0  0  0  0  0999 V2000
   37.4128   33.6262   95.5919 C   0  0  0  0  0  0  0  0  0  0  0  0
   36.3582   34.2538   96.5187 C   0  0  0  0  0  0  0  0  0  0  0  0
   35.4406   35.2226   95.7527 C   0  0  0  0  0  0  0  0  0  0  0  0
   36.7564   32.8954   94.4058 C   0  0  0  0  0  0  0  0  0  0  0  0
   35.8425   33.8444   93.5876 C   0  0  2  0  0  0  0  0  0  0  0  0
   34.8031   34.5958   94.4880 C   0  0  2  0  0  0  0  0  0  0  0  0
   33.8941   35.5823   93.7205 C   0  0  0  0  0  0  0  0  0  0  0  0
   33.4498   35.0515   92.3512 C   0  0  0  0  0  0  0  0  0  0  0  0
   34.6282   34.4639   91.5519 C   0  0  0  0  0  0  0  0  0  0  0  0
   35.1812   33.3532   92.3408 N   0  0  0  0  0  0  0  0  0  0  0  0
   34.7720   32.0626   92.1296 C   0  0  0  0  0  0  0  0  0  0  0  0
   34.2046   31.6603   90.7844 C   0  0  0  0  0  0  0  0  0  0  0  0
   34.9151   31.1643   92.9526 O   0  0  0  0  0  0  0  0  0  0  0  0
   34.8698   30.6856   90.0253 C   0  0  0  0  0  0  0  0  0  0  0  0
   34.3555   30.2551   88.7981 C   0  0  0  0  0  0  0  0  0  0  0  0
   33.1534   30.8040   88.3284 C   0  0  0  0  0  0  0  0  0  0  0  0
   32.4740   31.7566   89.0827 C   0  0  0  0  0  0  0  0  0  0  0  0
   32.9874   32.1686   90.3102 C   0  0  0  0  0  0  0  0  0  0  0  0
   35.0252   29.2034   88.1478 N   0  0  0  0  0  0  0  0  0  0  0  0
   34.9154   28.8167   86.8575 C   0  0  0  0  0  0  0  0  0  0  0  0
   35.2743   27.3622   86.5524 C   0  0  0  0  0  0  0  0  0  0  0  0
   34.5145   29.5599   85.9591 O   0  0  0  0  0  0  0  0  0  0  0  0
   35.0295   26.8568   85.2686 C   0  0  0  0  0  0  0  0  0  0  0  0
   35.2666   25.5190   84.9664 C   0  0  0  0  0  0  0  0  0  0  0  0
   35.7393   24.6616   85.9538 C   0  0  0  0  0  0  0  0  0  0  0  0
   35.9585   25.1264   87.2459 C   0  0  0  0  0  0  0  0  0  0  0  0
   35.7154   26.4637   87.5462 C   0  0  0  0  0  0  0  0  0  0  0  0
  1  2  1  0
  1  4  1  0
  2  3  1  0
  6  3  1  1
  5  4  1  1
  5 10  1  0
  5  6  1  0
  6  7  1  0
  7  8  1  0
  8  9  1  0
  9 10  1  0
 10 11  1  0
 11 12  1  0
 11 13  2  0
 12 14  2  0
 12 18  1  0
 14 15  1  0
 15 16  2  0
 15 19  1  0
 16 17  1  0
 17 18  2  0
 19 20  1  0
 20 21  1  0
 20 22  2  0
 21 23  2  0
 21 27  1  0
 23 24  1  0
 24 25  2  0
 25 26  1  0
 26 27  2  0
M  END
>  <Name>  (1) 
BDB50273861

>  <Target>  (1) 
11-beta-Hydroxysteroid Dehydrogenase 1 (11-beta-HSD1)

>  <IC50_in_nM>  (1) 
 14

>  <Kd_from_ITC>  (1) 
false

>  <Uniprot_ID>  (1) 
P28845

>  <source_organism>  (1) 
Homo sapiens

>  <SourceTag>  (1) 
11betaHSD1

>  <s_i_glide_gridfile>  (1) 
11betahsd1_glide-grid

>  <i_i_glide_lignum>  (1) 
6

>  <i_i_glide_rotatable_bonds>  (1) 
5

>  <r_i_docking_score>  (1) 
-7.60440329570355

>  <r_i_glide_ligand_efficiency>  (1) 
-0.281644566507539

>  <r_i_glide_ligand_efficiency_sa>  (1) 
-0.844933698594363

>  <r_i_glide_ligand_efficiency_ln>  (1) 
-1.77017971885339

>  <r_i_glide_gscore>  (1) 
-7.60440329570355

>  <r_i_glide_lipo>  (1) 
-4.0008827188247

>  <r_i_glide_hbond>  (1) 
-0.119872040484877

>  <r_i_glide_metal>  (1) 
-0

>  <r_i_glide_rewards>  (1) 
-2.32148575485283

>  <r_i_glide_evdw>  (1) 
-37.5564117431641

>  <r_i_glide_ecoul>  (1) 
-0.100871212780476

>  <r_i_glide_erotb>  (1) 
0.73078848753412

>  <r_i_glide_esite>  (1) 
0

>  <r_i_glide_emodel>  (1) 
-48.9246685541938

>  <r_i_glide_energy>  (1) 
-37.6572829559445

>  <r_i_glide_einternal>  (1) 
8.58904838562012

>  <i_i_glide_confnum>  (1) 
43

>  <i_i_glide_posenum>  (1) 
152

>  <r_i_glide_eff_state_penalty>  (1) 
0

$$$$
