BDB50306416-12-0000
     RDKit          3D

 59 64  0  0  1  0  0  0  0  0999 V2000
   34.6204   35.7512   96.0310 C   0  0  0  0  0  0  0  0  0  0  0  0
   35.1021   35.0693   97.3261 C   0  0  0  0  0  0  0  0  0  0  0  0
   35.9120   36.1581   95.2907 C   0  0  0  0  0  0  0  0  0  0  0  0
   35.3550   30.2426   89.9802 C   0  0  0  0  0  0  0  0  0  0  0  0
   35.5422   30.8496   91.3891 C   0  0  1  0  0  0  0  0  0  0  0  0
   34.4770   31.1477   89.0913 C   0  0  2  0  0  0  0  0  0  0  0  0
   36.2034   32.2480   91.2371 C   0  0  0  0  0  0  0  0  0  0  0  0
   35.1384   32.5423   89.0162 C   0  0  0  0  0  0  0  0  0  0  0  0
   35.3232   33.2266   90.3961 C   0  0  1  0  0  0  0  0  0  0  0  0
   33.1110   31.3250   89.7865 C   0  0  0  0  0  0  0  0  0  0  0  0
   33.2209   31.9701   91.1978 C   0  0  1  0  0  0  0  0  0  0  0  0
   34.1528   31.0395   92.0357 C   0  0  0  0  0  0  0  0  0  0  0  0
   33.9322   33.3539   91.0942 C   0  0  1  0  0  0  0  0  0  0  0  0
   34.0508   33.9405   92.4368 N   0  0  0  0  0  0  0  0  0  0  0  0
   33.7154   35.2100   92.7029 C   0  0  0  0  0  0  0  0  0  0  0  0
   33.3154   35.4637   93.9722 N   0  0  0  0  0  0  0  0  0  0  0  0
   33.7154   36.0638   91.8171 O   0  0  0  0  0  0  0  0  0  0  0  0
   33.7929   34.7471   95.1775 C   0  0  0  0  0  0  0  0  0  0  0  0
   33.7076   36.9491   96.3852 C   0  0  0  0  0  0  0  0  0  0  0  0
   33.2636   37.6638   95.1124 C   0  0  0  0  0  0  0  0  0  0  0  0
   32.5154   36.6698   94.2349 C   0  0  0  0  0  0  0  0  0  0  0  0
   36.9574   35.2399   95.8532 C   0  0  0  0  0  0  0  0  0  0  0  0
   36.5440   34.7142   97.0698 C   0  0  0  0  0  0  0  0  0  0  0  0
   37.4724   34.0638   97.8847 C   0  0  0  0  0  0  0  0  0  0  0  0
   38.7736   33.8408   97.4402 C   0  0  0  0  0  0  0  0  0  0  0  0
   39.1416   34.2754   96.1806 C   0  0  0  0  0  0  0  0  0  0  0  0
   38.2565   35.0262   95.4274 C   0  0  0  0  0  0  0  0  0  0  0  0
   35.0511   35.7745   98.1523 H   0  0  0  0  0  0  0  0  0  0  0  0
   34.4854   34.2116   97.5998 H   0  0  0  0  0  0  0  0  0  0  0  0
   35.8560   36.1349   94.2039 H   0  0  0  0  0  0  0  0  0  0  0  0
   36.1900   37.1834   95.5382 H   0  0  0  0  0  0  0  0  0  0  0  0
   34.9061   29.2513   90.0588 H   0  0  0  0  0  0  0  0  0  0  0  0
   36.3269   30.0830   89.5097 H   0  0  0  0  0  0  0  0  0  0  0  0
   36.1154   30.1699   92.0102 H   0  0  0  0  0  0  0  0  0  0  0  0
   34.3580   30.7185   88.0954 H   0  0  0  0  0  0  0  0  0  0  0  0
   36.4111   32.6704   92.2214 H   0  0  0  0  0  0  0  0  0  0  0  0
   37.1848   32.1409   90.7717 H   0  0  0  0  0  0  0  0  0  0  0  0
   36.1154   32.4636   88.5490 H   0  0  0  0  0  0  0  0  0  0  0  0
   34.5582   33.1928   88.3595 H   0  0  0  0  0  0  0  0  0  0  0  0
   35.8064   34.1990   90.2915 H   0  0  0  0  0  0  0  0  0  0  0  0
   32.4592   31.9358   89.1598 H   0  0  0  0  0  0  0  0  0  0  0  0
   32.6078   30.3595   89.8584 H   0  0  0  0  0  0  0  0  0  0  0  0
   32.2387   32.0638   91.6633 H   0  0  0  0  0  0  0  0  0  0  0  0
   33.7154   30.0640   92.1901 H   0  0  0  0  0  0  0  0  0  0  0  0
   34.2706   31.4224   93.0502 H   0  0  0  0  0  0  0  0  0  0  0  0
   33.2954   33.9908   90.4728 H   0  0  0  0  0  0  0  0  0  0  0  0
   34.2525   33.3069   93.1942 H   0  0  0  0  0  0  0  0  0  0  0  0
   32.8952   34.4638   95.7275 H   0  0  0  0  0  0  0  0  0  0  0  0
   34.3259   33.8208   94.9604 H   0  0  0  0  0  0  0  0  0  0  0  0
   34.2409   37.6638   97.0063 H   0  0  0  0  0  0  0  0  0  0  0  0
   32.8497   36.6263   96.9787 H   0  0  0  0  0  0  0  0  0  0  0  0
   34.0952   38.1203   94.5737 H   0  0  0  0  0  0  0  0  0  0  0  0
   32.5584   38.4614   95.3436 H   0  0  0  0  0  0  0  0  0  0  0  0
   32.1158   37.1443   93.3523 H   0  0  0  0  0  0  0  0  0  0  0  0
   31.6614   36.3061   94.7927 H   0  0  0  0  0  0  0  0  0  0  0  0
   37.2134   33.6638   98.8458 H   0  0  0  0  0  0  0  0  0  0  0  0
   39.4841   33.3049   98.0518 H   0  0  0  0  0  0  0  0  0  0  0  0
   40.1154   34.0638   95.7976 H   0  0  0  0  0  0  0  0  0  0  0  0
   38.6150   35.4867   94.5523 H   0  0  0  0  0  0  0  0  0  0  0  0
  1  2  1  0
  1  3  1  0
  1 18  1  0
  1 19  1  0
  2 23  1  0
  2 28  1  0
  2 29  1  0
  3 22  1  0
  3 30  1  0
  3 31  1  0
  4  5  1  0
  4  6  1  0
  4 32  1  0
  4 33  1  0
  5  7  1  0
  5 12  1  0
  5 34  1  1
  6  8  1  0
  6 10  1  0
  6 35  1  6
  7  9  1  0
  7 36  1  0
  7 37  1  0
  8  9  1  0
  8 38  1  0
  8 39  1  0
  9 13  1  0
  9 40  1  6
 10 11  1  0
 10 41  1  0
 10 42  1  0
 11 13  1  0
 11 12  1  0
 11 43  1  1
 12 44  1  0
 12 45  1  0
 13 14  1  0
 13 46  1  6
 14 15  1  0
 14 47  1  0
 15 16  1  0
 15 17  2  0
 16 18  1  0
 16 21  1  0
 18 48  1  0
 18 49  1  0
 19 20  1  0
 19 50  1  0
 19 51  1  0
 20 21  1  0
 20 52  1  0
 20 53  1  0
 21 54  1  0
 21 55  1  0
 22 23  2  0
 22 27  1  0
 23 24  1  0
 24 25  2  0
 24 56  1  0
 25 26  1  0
 25 57  1  0
 26 27  2  0
 26 58  1  0
 27 59  1  0
M  END
>  <Name>  (1) 
BDB50306416

>  <Target>  (1) 
11-beta-Hydroxysteroid Dehydrogenase 1 (11-beta-HSD1)

>  <IC50_in_nM>  (1) 
 0.7

>  <Kd_from_ITC>  (1) 
false

>  <Uniprot_ID>  (1) 
P28845

>  <source_organism>  (1) 
Homo sapiens

>  <SourceTag>  (1) 
11betaHSD1

>  <s_i_glide_gridfile>  (1) 
11betahsd1_glide-grid

>  <i_i_glide_lignum>  (1) 
13

>  <i_i_glide_rotatable_bonds>  (1) 
3

>  <r_i_docking_score>  (1) 
-10.9371267844432

>  <r_i_glide_ligand_efficiency>  (1) 
-0.405078769794194

>  <r_i_glide_ligand_efficiency_sa>  (1) 
-1.21523630804751

>  <r_i_glide_ligand_efficiency_ln>  (1) 
-2.54598280279115

>  <r_i_glide_gscore>  (1) 
-10.9371267844432

>  <r_i_glide_lipo>  (1) 
-5.8989888711524

>  <r_i_glide_hbond>  (1) 
-0.243894037620632

>  <r_i_glide_metal>  (1) 
-0

>  <r_i_glide_rewards>  (1) 
-2.36605515426019

>  <r_i_glide_evdw>  (1) 
-37.5436248779297

>  <r_i_glide_ecoul>  (1) 
-6.56714296340942

>  <r_i_glide_erotb>  (1) 
0.434063966997885

>  <r_i_glide_esite>  (1) 
0

>  <r_i_glide_emodel>  (1) 
-55.7431809121348

>  <r_i_glide_energy>  (1) 
-44.1107678413391

>  <r_i_glide_einternal>  (1) 
3.16392993927002

>  <i_i_glide_confnum>  (1) 
10

>  <i_i_glide_posenum>  (1) 
1

>  <r_i_glide_eff_state_penalty>  (1) 
0

$$$$
