BDB28369-11-0000
     RDKit          3D

 60 63  0  0  1  0  0  0  0  0999 V2000
   36.7853   34.3030   97.4027 C   0  0  0  0  0  0  0  0  0  0  0  0
   37.2100   34.9246   96.0321 C   0  0  1  0  0  0  0  0  0  0  0  0
   38.6192   34.3557   95.7087 C   0  0  0  0  0  0  0  0  0  0  0  0
   39.6440   34.5565   96.8390 C   0  0  0  0  0  0  0  0  0  0  0  0
   39.2592   33.9215   98.1641 C   0  0  2  0  0  0  0  0  0  0  0  0
   37.8333   34.3186   98.5381 C   0  0  0  0  0  0  0  0  0  0  0  0
   40.3257   34.0913   99.2937 C   0  0  0  0  0  0  0  0  0  0  0  0
   36.2305   34.7011   94.9354 N   0  0  0  0  0  0  0  0  0  0  0  0
   39.8290   34.4121  100.7242 C   0  0  0  0  0  0  0  0  0  0  0  0
   35.9166   33.4565   94.4612 C   0  0  0  0  0  0  0  0  0  0  0  0
   35.6885   35.9479   94.3700 C   0  0  0  0  0  0  0  0  0  0  0  0
   34.1869   36.1369   94.2380 C   0  0  0  0  0  0  0  0  0  0  0  0
   34.9545   36.9166   95.2773 C   0  0  0  0  0  0  0  0  0  0  0  0
   35.2585   33.2785   93.1105 C   0  0  0  0  0  0  0  0  0  0  0  0
   36.1925   32.4337   95.0831 O   0  0  0  0  0  0  0  0  0  0  0  0
   35.1965   33.6634   90.7241 C   0  0  0  0  0  0  0  0  0  0  0  0
   34.2035   32.6889   90.5598 C   0  0  0  0  0  0  0  0  0  0  0  0
   33.7273   32.0326   91.7056 C   0  0  0  0  0  0  0  0  0  0  0  0
   34.2558   32.3156   92.9610 C   0  0  0  0  0  0  0  0  0  0  0  0
   35.7154   33.9625   91.9800 C   0  0  0  0  0  0  0  0  0  0  0  0
   33.7030   32.3491   89.1313 C   0  0  1  0  0  0  0  0  0  0  0  0
   34.8978   32.0101   88.2093 C   0  0  0  0  0  0  0  0  0  0  0  0
   32.6751   31.1734   89.0643 C   0  0  0  0  0  0  0  0  0  0  0  0
   33.0661   33.4783   88.5547 O   0  0  0  0  0  0  0  0  0  0  0  0
   31.5740   31.4598   89.7512 F   0  0  0  0  0  0  0  0  0  0  0  0
   32.2691   30.8639   87.8281 F   0  0  0  0  0  0  0  0  0  0  0  0
   33.1970   30.0587   89.5666 F   0  0  0  0  0  0  0  0  0  0  0  0
   39.3323   35.7914  100.9008 C   0  0  0  0  0  0  0  0  0  0  0  0
   38.9400   36.8694  101.0368 N   0  0  0  0  0  0  0  0  0  0  0  0
   39.2149   33.2954  101.5426 C   0  0  0  0  0  0  0  0  0  0  0  0
   40.5950   33.8046  101.8839 C   0  0  0  0  0  0  0  0  0  0  0  0
   36.5139   33.2633   97.2849 H   0  0  0  0  0  0  0  0  0  0  0  0
   35.8802   34.8010   97.7513 H   0  0  0  0  0  0  0  0  0  0  0  0
   37.3436   35.9995   96.1531 H   0  0  0  0  0  0  0  0  0  0  0  0
   38.5687   33.2875   95.4952 H   0  0  0  0  0  0  0  0  0  0  0  0
   39.0054   34.8340   94.8059 H   0  0  0  0  0  0  0  0  0  0  0  0
   39.8802   35.6084   96.9779 H   0  0  0  0  0  0  0  0  0  0  0  0
   40.5487   34.0640   96.5522 H   0  0  0  0  0  0  0  0  0  0  0  0
   39.2421   32.8640   97.9017 H   0  0  0  0  0  0  0  0  0  0  0  0
   37.5461   33.6619   99.3489 H   0  0  0  0  0  0  0  0  0  0  0  0
   37.8613   35.3282   98.9355 H   0  0  0  0  0  0  0  0  0  0  0  0
   41.0390   34.8613   99.0100 H   0  0  0  0  0  0  0  0  0  0  0  0
   40.9205   33.1825   99.3515 H   0  0  0  0  0  0  0  0  0  0  0  0
   36.3316   36.3828   93.6042 H   0  0  0  0  0  0  0  0  0  0  0  0
   33.8063   36.6506   93.3547 H   0  0  0  0  0  0  0  0  0  0  0  0
   33.5222   35.3378   94.5650 H   0  0  0  0  0  0  0  0  0  0  0  0
   34.8256   36.6624   96.3293 H   0  0  0  0  0  0  0  0  0  0  0  0
   35.1165   37.9857   95.1365 H   0  0  0  0  0  0  0  0  0  0  0  0
   35.6036   34.1814   89.8693 H   0  0  0  0  0  0  0  0  0  0  0  0
   32.9666   31.2718   91.6619 H   0  0  0  0  0  0  0  0  0  0  0  0
   33.8954   31.7599   93.8160 H   0  0  0  0  0  0  0  0  0  0  0  0
   36.5150   34.6852   92.0537 H   0  0  0  0  0  0  0  0  0  0  0  0
   35.5040   31.2114   88.6359 H   0  0  0  0  0  0  0  0  0  0  0  0
   34.5654   31.6642   87.2292 H   0  0  0  0  0  0  0  0  0  0  0  0
   35.5525   32.8640   88.0362 H   0  0  0  0  0  0  0  0  0  0  0  0
   33.6424   34.2426   88.6664 H   0  0  0  0  0  0  0  0  0  0  0  0
   39.1294   32.2985  101.1121 H   0  0  0  0  0  0  0  0  0  0  0  0
   38.3892   33.5288  102.2165 H   0  0  0  0  0  0  0  0  0  0  0  0
   40.7222   34.3908  102.7963 H   0  0  0  0  0  0  0  0  0  0  0  0
   41.4488   33.1538  101.6894 H   0  0  0  0  0  0  0  0  0  0  0  0
  1  2  1  0
  1  6  1  0
  1 32  1  0
  1 33  1  0
  2  3  1  0
  2  8  1  0
  2 34  1  1
  3  4  1  0
  3 35  1  0
  3 36  1  0
  4  5  1  0
  4 37  1  0
  4 38  1  0
  5  6  1  0
  5  7  1  0
  5 39  1  6
  6 40  1  0
  6 41  1  0
  7  9  1  0
  7 42  1  0
  7 43  1  0
  8 10  1  0
  8 11  1  0
  9 28  1  0
  9 30  1  0
  9 31  1  0
 10 14  1  0
 10 15  2  0
 11 12  1  0
 11 13  1  0
 11 44  1  0
 12 13  1  0
 12 45  1  0
 12 46  1  0
 13 47  1  0
 13 48  1  0
 14 19  1  0
 14 20  2  0
 16 17  2  0
 16 20  1  0
 16 49  1  0
 17 18  1  0
 17 21  1  0
 18 19  2  0
 18 50  1  0
 19 51  1  0
 20 52  1  0
 21 22  1  0
 21 23  1  0
 21 24  1  6
 22 53  1  0
 22 54  1  0
 22 55  1  0
 23 25  1  0
 23 26  1  0
 23 27  1  0
 24 56  1  0
 28 29  3  0
 30 31  1  0
 30 57  1  0
 30 58  1  0
 31 59  1  0
 31 60  1  0
M  END
>  <Name>  (1) 
BDB28369

>  <Target>  (1) 
11-beta-Hydroxysteroid Dehydrogenase 1 (11-beta-HSD1)

>  <IC50_in_nM>  (1) 
 0.6

>  <Kd_from_ITC>  (1) 
false

>  <Uniprot_ID>  (1) 
P28845

>  <source_organism>  (1) 
Homo sapiens (human)

>  <SourceTag>  (1) 
11betaHSD1

>  <s_i_glide_gridfile>  (1) 
11betahsd1_glide-grid

>  <i_i_glide_lignum>  (1) 
12

>  <i_i_glide_rotatable_bonds>  (1) 
9

>  <r_i_docking_score>  (1) 
-8.68091362951404

>  <r_i_glide_ligand_efficiency>  (1) 
-0.280029471919808

>  <r_i_glide_ligand_efficiency_sa>  (1) 
-0.879679164181327

>  <r_i_glide_ligand_efficiency_ln>  (1) 
-1.9578120615082

>  <r_i_glide_gscore>  (1) 
-8.68091362951404

>  <r_i_glide_lipo>  (1) 
-4.89643989062135

>  <r_i_glide_hbond>  (1) 
-0.154732439082797

>  <r_i_glide_metal>  (1) 
-0

>  <r_i_glide_rewards>  (1) 
-2.31000994470494

>  <r_i_glide_evdw>  (1) 
-35.2147674560547

>  <r_i_glide_ecoul>  (1) 
-1.98312962055206

>  <r_i_glide_erotb>  (1) 
0.738476460780595

>  <r_i_glide_esite>  (1) 
0

>  <r_i_glide_emodel>  (1) 
-41.4448176974227

>  <r_i_glide_energy>  (1) 
-37.1978970766068

>  <r_i_glide_einternal>  (1) 
18.4854278564453

>  <i_i_glide_confnum>  (1) 
203

>  <i_i_glide_posenum>  (1) 
283

>  <r_i_glide_eff_state_penalty>  (1) 
0

$$$$
