BDB50295378-6-0000
     RDKit          3D

 31 33  0  0  1  0  0  0  0  0999 V2000
   32.9907   32.4942   91.5233 C   0  0  0  0  0  0  0  0  0  0  0  0
   33.3245   33.1798   92.8791 C   0  0  0  0  0  0  0  0  0  0  0  0
   34.3748   34.2043   92.7029 N   0  0  0  0  0  0  0  0  0  0  0  0
   35.5869   33.7295   92.0038 C   0  0  2  0  0  0  0  0  0  0  0  0
   35.1398   33.2456   90.6149 C   0  0  0  0  0  0  0  0  0  0  0  0
   34.1729   32.1309   90.7021 N   0  0  0  0  0  0  0  0  0  0  0  0
   36.2932   32.6327   92.8400 C   0  0  0  0  0  0  0  0  0  0  0  0
   34.2681   31.1258   89.7444 C   0  0  0  0  0  0  0  0  0  0  0  0
   35.4170   30.3277   89.8190 C   0  0  0  0  0  0  0  0  0  0  0  0
   35.7152   29.3928   88.8349 C   0  0  0  0  0  0  0  0  0  0  0  0
   34.9153   29.2991   87.7040 C   0  0  0  0  0  0  0  0  0  0  0  0
   33.7587   30.0638   87.6181 C   0  0  0  0  0  0  0  0  0  0  0  0
   33.3879   30.9379   88.6495 C   0  0  0  0  0  0  0  0  0  0  0  0
   32.0344   31.6329   88.5500 C   0  0  0  0  0  0  0  0  0  0  0  0
   32.1725   32.9538   88.5520 F   0  0  0  0  0  0  0  0  0  0  0  0
   31.3156   31.2661   87.4837 F   0  0  0  0  0  0  0  0  0  0  0  0
   31.3156   31.2648   89.5868 F   0  0  0  0  0  0  0  0  0  0  0  0
   35.2380   28.4614   86.6942 F   0  0  0  0  0  0  0  0  0  0  0  0
   34.4592   35.6266   93.7557 S   0  0  0  0  0  0  0  0  0  0  0  0
   35.6906   35.2161   95.0124 C   0  0  0  0  0  0  0  0  0  0  0  0
   35.3863   34.7438   96.2984 C   0  0  0  0  0  0  0  0  0  0  0  0
   36.4168   34.3885   97.1683 C   0  0  0  0  0  0  0  0  0  0  0  0
   37.7682   34.4635   96.7963 C   0  0  0  0  0  0  0  0  0  0  0  0
   38.0511   34.9262   95.5026 C   0  0  0  0  0  0  0  0  0  0  0  0
   37.0330   35.3254   94.6415 C   0  0  0  0  0  0  0  0  0  0  0  0
   35.0538   36.6997   92.9526 O   0  0  0  0  0  0  0  0  0  0  0  0
   33.1441   35.8247   94.3742 O   0  0  0  0  0  0  0  0  0  0  0  0
   33.7743   34.5669   96.8851 Cl  0  0  0  0  0  0  0  0  0  0  0  0
   38.8086   34.1213   97.7055 N   0  0  0  0  0  0  0  0  0  0  0  0
   40.1915   34.4638   97.3874 C   0  0  0  0  0  0  0  0  0  0  0  0
   38.5183   34.0644   99.1367 C   0  0  0  0  0  0  0  0  0  0  0  0
  1  2  1  0
  1  6  1  0
  2  3  1  0
 19  3  1  0
  3  4  1  0
  4  5  1  0
  4  7  1  1
  5  6  1  0
  6  8  1  0
  8  9  2  0
  8 13  1  0
  9 10  1  0
 10 11  2  0
 11 18  1  0
 11 12  1  0
 12 13  2  0
 13 14  1  0
 14 15  1  0
 14 16  1  0
 14 17  1  0
 19 20  1  0
 19 26  2  0
 19 27  2  0
 20 21  2  0
 20 25  1  0
 21 22  1  0
 21 28  1  0
 22 23  2  0
 23 24  1  0
 23 29  1  0
 24 25  2  0
 29 30  1  0
 29 31  1  0
M  END
>  <Name>  (1) 
BDB50295378

>  <Target>  (1) 
11-beta-Hydroxysteroid Dehydrogenase 1 (11-beta-HSD1)

>  <IC50_in_nM>  (1) 
 15

>  <Kd_from_ITC>  (1) 
false

>  <Uniprot_ID>  (1) 
P28845

>  <source_organism>  (1) 
Homo sapiens

>  <SourceTag>  (1) 
11betaHSD1

>  <s_i_glide_gridfile>  (1) 
11betahsd1_glide-grid

>  <i_i_glide_lignum>  (1) 
7

>  <i_i_glide_rotatable_bonds>  (1) 
5

>  <r_i_docking_score>  (1) 
-9.47542899444046

>  <r_i_glide_ligand_efficiency>  (1) 
-0.30565899982066

>  <r_i_glide_ligand_efficiency_sa>  (1) 
-0.960191267166831

>  <r_i_glide_ligand_efficiency_ln>  (1) 
-2.13699962527084

>  <r_i_glide_gscore>  (1) 
-9.47542899444046

>  <r_i_glide_lipo>  (1) 
-4.83690182195406

>  <r_i_glide_hbond>  (1) 
0

>  <r_i_glide_metal>  (1) 
-0

>  <r_i_glide_rewards>  (1) 
-2.07743791304929

>  <r_i_glide_evdw>  (1) 
-41.0047187805176

>  <r_i_glide_ecoul>  (1) 
-4.95708465576172

>  <r_i_glide_erotb>  (1) 
0.264089164149821

>  <r_i_glide_esite>  (1) 
-0.0313797861967942

>  <r_i_glide_emodel>  (1) 
-64.3095822118017

>  <r_i_glide_energy>  (1) 
-45.9618034362793

>  <r_i_glide_einternal>  (1) 
2.0290150642395

>  <i_i_glide_confnum>  (1) 
76

>  <i_i_glide_posenum>  (1) 
150

>  <r_i_glide_eff_state_penalty>  (1) 
0

$$$$
