BDB50260967-13-0000
     RDKit          3D

 33 37  0  0  1  0  0  0  0  0999 V2000
   34.2408   36.8823   96.2788 C   0  0  0  0  0  0  0  0  0  0  0  0
   33.5862   36.2650   97.5048 C   0  0  0  0  0  0  0  0  0  0  0  0
   33.5574   34.9662   96.7007 C   0  0  0  0  0  0  0  0  0  0  0  0
   34.7612   35.4696   95.8660 C   0  0  0  0  0  0  0  0  0  0  0  0
   38.8066   34.4146   97.0591 C   0  0  0  0  0  0  0  0  0  0  0  0
   38.5857   34.8641   95.7596 C   0  0  0  0  0  0  0  0  0  0  0  0
   37.2911   35.2045   95.3626 C   0  0  0  0  0  0  0  0  0  0  0  0
   36.2035   35.0192   96.2357 C   0  0  0  0  0  0  0  0  0  0  0  0
   36.4452   34.3925   97.4615 C   0  0  0  0  0  0  0  0  0  0  0  0
   37.7348   34.0763   97.8736 C   0  0  0  0  0  0  0  0  0  0  0  0
   40.3897   34.4632   97.7466 Cl  0  0  0  0  0  0  0  0  0  0  0  0
   34.5476   35.1713   94.3908 C   0  0  0  0  0  0  0  0  0  0  0  0
   34.6484   33.9111   93.8498 N   0  0  0  0  0  0  0  0  0  0  0  0
   34.4367   34.1343   92.5164 C   0  0  0  0  0  0  0  0  0  0  0  0
   34.1912   35.3918   92.2555 N   0  0  0  0  0  0  0  0  0  0  0  0
   34.2649   36.0611   93.4652 N   0  0  0  0  0  0  0  0  0  0  0  0
   34.9554   32.6364   94.4969 C   0  0  0  0  0  0  0  0  0  0  0  0
   34.5058   33.0749   91.5130 C   0  0  0  0  0  0  0  0  0  0  0  0
   33.4688   32.1429   91.4925 C   0  0  0  0  0  0  0  0  0  0  0  0
   33.4672   31.1415   90.5344 C   0  0  0  0  0  0  0  0  0  0  0  0
   34.4939   31.0834   89.5933 C   0  0  0  0  0  0  0  0  0  0  0  0
   35.5685   31.9672   89.6694 C   0  0  0  0  0  0  0  0  0  0  0  0
   35.5762   32.9724   90.6183 C   0  0  0  0  0  0  0  0  0  0  0  0
   34.4008   30.2815   88.4582 N   0  0  0  0  0  0  0  0  0  0  0  0
   35.3461   29.4319   87.9606 C   0  0  0  0  0  0  0  0  0  0  0  0
   34.9154   29.0765   86.6992 C   0  0  0  0  0  0  0  0  0  0  0  0
   33.7747   29.6639   86.4052 N   0  0  0  0  0  0  0  0  0  0  0  0
   33.4045   30.2756   87.5121 C   0  0  0  0  0  0  0  0  0  0  0  0
   36.9123   34.0650   90.6237 Cl  0  0  0  0  0  0  0  0  0  0  0  0
   32.0102   30.8336   87.7530 C   0  0  0  0  0  0  0  0  0  0  0  0
   31.3299   30.0637   88.5999 F   0  0  0  0  0  0  0  0  0  0  0  0
   31.3155   30.8473   86.6341 F   0  0  0  0  0  0  0  0  0  0  0  0
   32.0116   32.0757   88.2381 F   0  0  0  0  0  0  0  0  0  0  0  0
  1  4  1  0
  1  2  1  0
  2  3  1  0
  3  4  1  0
  4  8  1  0
  4 12  1  0
  5 10  2  0
  5 11  1  0
  5  6  1  0
  6  7  2  0
  7  8  1  0
  8  9  2  0
  9 10  1  0
 12 16  2  0
 12 13  1  0
 13 17  1  0
 13 14  1  0
 14 18  1  0
 14 15  2  0
 15 16  1  0
 18 19  2  0
 18 23  1  0
 19 20  1  0
 20 21  2  0
 21 22  1  0
 21 24  1  0
 22 23  2  0
 23 29  1  0
 24 25  1  0
 24 28  1  0
 25 26  2  0
 26 27  1  0
 27 28  2  0
 28 30  1  0
 30 31  1  0
 30 32  1  0
 30 33  1  0
M  END
>  <Name>  (1) 
BDB50260967

>  <Target>  (1) 
11-beta-Hydroxysteroid Dehydrogenase 1 (11-beta-HSD1)

>  <IC50_in_nM>  (1) 
 0.98

>  <Kd_from_ITC>  (1) 
false

>  <Uniprot_ID>  (1) 
P28845

>  <source_organism>  (1) 
Homo sapiens

>  <SourceTag>  (1) 
11betaHSD1

>  <s_i_glide_gridfile>  (1) 
11betahsd1_glide-grid

>  <i_i_glide_lignum>  (1) 
14

>  <i_i_glide_rotatable_bonds>  (1) 
5

>  <r_i_docking_score>  (1) 
-9.80592186103589

>  <r_i_glide_ligand_efficiency>  (1) 
-0.297149147304118

>  <r_i_glide_ligand_efficiency_sa>  (1) 
-0.953116089996085

>  <r_i_glide_ligand_efficiency_ln>  (1) 
-2.18078624954826

>  <r_i_glide_gscore>  (1) 
-9.80592186103589

>  <r_i_glide_lipo>  (1) 
-5.18023014206525

>  <r_i_glide_hbond>  (1) 
0

>  <r_i_glide_metal>  (1) 
-0

>  <r_i_glide_rewards>  (1) 
-2.75234230227273

>  <r_i_glide_evdw>  (1) 
-37.6177825927734

>  <r_i_glide_ecoul>  (1) 
-2.19013690948486

>  <r_i_glide_erotb>  (1) 
0.336060249363492

>  <r_i_glide_esite>  (1) 
0

>  <r_i_glide_emodel>  (1) 
-44.5913508627908

>  <r_i_glide_energy>  (1) 
-39.8079195022583

>  <r_i_glide_einternal>  (1) 
1.58410143852234

>  <i_i_glide_confnum>  (1) 
125

>  <i_i_glide_posenum>  (1) 
202

>  <r_i_glide_eff_state_penalty>  (1) 
0

$$$$
