BDB50195499-28-0000
     RDKit          3D

 27 29  0  0  1  0  0  0  0  0999 V2000
   34.2475   32.1777   89.9437 C   0  0  0  0  0  0  0  0  0  0  0  0
   35.5178   31.6027   90.0251 C   0  0  0  0  0  0  0  0  0  0  0  0
   35.8173   30.4312   89.3526 C   0  0  0  0  0  0  0  0  0  0  0  0
   34.9369   29.9331   88.3869 C   0  0  0  0  0  0  0  0  0  0  0  0
   33.7070   30.5838   88.1883 C   0  0  0  0  0  0  0  0  0  0  0  0
   33.3587   31.6788   88.9830 C   0  0  0  0  0  0  0  0  0  0  0  0
   37.3150   29.6638   89.7522 Cl  0  0  0  0  0  0  0  0  0  0  0  0
   32.5781   30.0638   86.9869 Cl  0  0  0  0  0  0  0  0  0  0  0  0
   35.3148   28.8324   87.6112 N   0  0  0  0  0  0  0  0  0  0  0  0
   33.8255   33.2895   90.8835 C   0  0  0  0  0  0  0  0  0  0  0  0
   32.9401   34.0638   90.5130 O   0  0  0  0  0  0  0  0  0  0  0  0
   34.4146   33.3816   92.1185 N   0  0  0  0  0  0  0  0  0  0  0  0
   34.7870   32.1441   92.8739 C   0  0  1  0  0  0  0  0  0  0  0  0
   35.3165   32.4374   94.3002 C   0  0  0  0  0  0  0  0  0  0  0  0
   35.8458   33.7643   94.6220 N   0  0  0  0  0  0  0  0  0  0  0  0
   35.5051   34.8325   93.6809 C   0  0  0  0  0  0  0  0  0  0  0  0
   34.1861   34.6148   92.8977 C   0  0  2  0  0  0  0  0  0  0  0  0
   33.7154   31.0405   92.9324 C   0  0  0  0  0  0  0  0  0  0  0  0
   32.9155   34.5948   93.7662 C   0  0  0  0  0  0  0  0  0  0  0  0
   36.9419   33.8548   95.4567 C   0  0  0  0  0  0  0  0  0  0  0  0
   36.8870   34.4726   96.7226 C   0  0  0  0  0  0  0  0  0  0  0  0
   38.0249   34.4638   97.5328 C   0  0  0  0  0  0  0  0  0  0  0  0
   39.2362   33.9619   97.0661 C   0  0  0  0  0  0  0  0  0  0  0  0
   39.3054   33.4081   95.7928 C   0  0  0  0  0  0  0  0  0  0  0  0
   38.1573   33.3280   95.0101 C   0  0  0  0  0  0  0  0  0  0  0  0
   35.7983   35.1692   97.2026 O   0  0  0  0  0  0  0  0  0  0  0  0
   34.5703   34.4763   97.3523 C   0  0  0  0  0  0  0  0  0  0  0  0
  1  2  2  0
  1 10  1  0
  1  6  1  0
  2  3  1  0
  3  7  1  0
  3  4  2  0
  4  9  1  0
  4  5  1  0
  5  8  1  0
  5  6  2  0
 10 11  2  0
 10 12  1  0
 12 17  1  0
 12 13  1  0
 13 14  1  0
 13 18  1  1
 14 15  1  0
 15 16  1  0
 15 20  1  0
 16 17  1  0
 17 19  1  1
 20 21  2  0
 20 25  1  0
 21 22  1  0
 21 26  1  0
 22 23  2  0
 23 24  1  0
 24 25  2  0
 26 27  1  0
M  END
>  <Name>  (1) 
BDB50195499

>  <Target>  (1) 
11-beta-Hydroxysteroid Dehydrogenase 1 (11-beta-HSD1)

>  <Ki_in_nM>  (1) 
10

>  <IC50_in_nM>  (1) 
 190

>  <Kd_from_ITC>  (1) 
false

>  <Uniprot_ID>  (1) 
P28845

>  <source_organism>  (1) 
Homo sapiens

>  <SourceTag>  (1) 
11betaHSD1

>  <s_i_glide_gridfile>  (1) 
11betahsd1_glide-grid

>  <i_i_glide_lignum>  (1) 
29

>  <i_i_glide_rotatable_bonds>  (1) 
4

>  <r_i_docking_score>  (1) 
-9.26796137064445

>  <r_i_glide_ligand_efficiency>  (1) 
-0.343257828542387

>  <r_i_glide_ligand_efficiency_sa>  (1) 
-1.02977348449584

>  <r_i_glide_ligand_efficiency_ln>  (1) 
-2.15742861280131

>  <r_i_glide_gscore>  (1) 
-9.26796137064445

>  <r_i_glide_lipo>  (1) 
-4.82348575191074

>  <r_i_glide_hbond>  (1) 
-0.32

>  <r_i_glide_metal>  (1) 
-0

>  <r_i_glide_rewards>  (1) 
-1.99197281787443

>  <r_i_glide_evdw>  (1) 
-37.6107025146484

>  <r_i_glide_ecoul>  (1) 
-3.90816140174866

>  <r_i_glide_erotb>  (1) 
0.354117773013068

>  <r_i_glide_esite>  (1) 
-0.0198612378776258

>  <r_i_glide_emodel>  (1) 
-39.5574359380173

>  <r_i_glide_energy>  (1) 
-41.5188639163971

>  <r_i_glide_einternal>  (1) 
13.5602693557739

>  <i_i_glide_confnum>  (1) 
32

>  <i_i_glide_posenum>  (1) 
33

>  <r_i_glide_eff_state_penalty>  (1) 
0

$$$$
