BDB13749-23-0000
     RDKit          3D

 39 40  0  0  1  0  0  0  0  0999 V2000
   32.9712   32.6057   90.8132 C   0  0  2  0  0  0  0  0  0  0  0  0
   32.9288   33.1494   92.1807 N   0  0  0  0  0  0  0  0  0  0  0  0
   33.7157   34.1179   92.7839 C   0  0  0  0  0  0  0  0  0  0  0  0
   34.6938   34.7068   92.2492 N   0  0  0  0  0  0  0  0  0  0  0  0
   33.3158   34.5636   94.4524 S   0  0  0  0  0  0  0  0  0  0  0  0
   35.3999   35.5116   93.1100 C   0  0  0  0  0  0  0  0  0  0  0  0
   36.4217   36.1122   92.7895 O   0  0  0  0  0  0  0  0  0  0  0  0
   34.8132   35.5694   94.5403 C   0  0  1  0  0  0  0  0  0  0  0  0
   34.3944   37.0332   94.8451 C   0  0  0  0  0  0  0  0  0  0  0  0
   35.8413   34.9983   95.5917 C   0  0  0  0  0  0  0  0  0  0  0  0
   36.3715   33.5716   95.2893 C   0  0  0  0  0  0  0  0  0  0  0  0
   35.3253   35.0412   97.0492 C   0  0  0  0  0  0  0  0  0  0  0  0
   34.0907   31.5953   90.5161 C   0  0  0  0  0  0  0  0  0  0  0  0
   33.7916   30.4636   89.7423 C   0  0  0  0  0  0  0  0  0  0  0  0
   34.7972   29.5716   89.3682 C   0  0  0  0  0  0  0  0  0  0  0  0
   36.1160   29.7992   89.7520 C   0  0  0  0  0  0  0  0  0  0  0  0
   36.4285   30.9216   90.5135 C   0  0  0  0  0  0  0  0  0  0  0  0
   35.4247   31.8062   90.8988 C   0  0  0  0  0  0  0  0  0  0  0  0
   32.8898   33.6637   89.7061 C   0  0  0  0  0  0  0  0  0  0  0  0
   32.5240   30.2306   89.3269 F   0  0  0  0  0  0  0  0  0  0  0  0
   32.0391   32.0436   90.7566 H   0  0  0  0  0  0  0  0  0  0  0  0
   32.1662   32.7856   92.7366 H   0  0  0  0  0  0  0  0  0  0  0  0
   35.2547   37.7037   94.8779 H   0  0  0  0  0  0  0  0  0  0  0  0
   33.6966   37.4253   94.1042 H   0  0  0  0  0  0  0  0  0  0  0  0
   33.8852   37.1159   95.8049 H   0  0  0  0  0  0  0  0  0  0  0  0
   36.7151   35.6539   95.5686 H   0  0  0  0  0  0  0  0  0  0  0  0
   35.5697   32.8329   95.2969 H   0  0  0  0  0  0  0  0  0  0  0  0
   37.1068   33.2606   96.0326 H   0  0  0  0  0  0  0  0  0  0  0  0
   36.8668   33.5121   94.3200 H   0  0  0  0  0  0  0  0  0  0  0  0
   34.4347   34.4257   97.1832 H   0  0  0  0  0  0  0  0  0  0  0  0
   36.0779   34.6728   97.7483 H   0  0  0  0  0  0  0  0  0  0  0  0
   35.0796   36.0530   97.3677 H   0  0  0  0  0  0  0  0  0  0  0  0
   34.5550   28.7074   88.7701 H   0  0  0  0  0  0  0  0  0  0  0  0
   36.8948   29.1136   89.4495 H   0  0  0  0  0  0  0  0  0  0  0  0
   37.4505   31.1226   90.7969 H   0  0  0  0  0  0  0  0  0  0  0  0
   35.7271   32.6645   91.4690 H   0  0  0  0  0  0  0  0  0  0  0  0
   32.6698   33.2069   88.7405 H   0  0  0  0  0  0  0  0  0  0  0  0
   32.1190   34.4087   89.9028 H   0  0  0  0  0  0  0  0  0  0  0  0
   33.8520   34.1599   89.6119 H   0  0  0  0  0  0  0  0  0  0  0  0
  1 13  1  0
  1  2  1  0
  1 19  1  0
  1 21  1  6
  2  3  1  0
  2 22  1  0
  3  4  2  0
  3  5  1  0
  4  6  1  0
  5  8  1  0
  6  8  1  0
  6  7  2  0
  8  9  1  1
  8 10  1  0
  9 23  1  0
  9 24  1  0
  9 25  1  0
 10 11  1  0
 10 12  1  0
 10 26  1  0
 11 27  1  0
 11 28  1  0
 11 29  1  0
 12 30  1  0
 12 31  1  0
 12 32  1  0
 13 18  1  0
 13 14  2  0
 14 15  1  0
 14 20  1  0
 15 16  2  0
 15 33  1  0
 16 17  1  0
 16 34  1  0
 17 18  2  0
 17 35  1  0
 18 36  1  0
 19 37  1  0
 19 38  1  0
 19 39  1  0
M  END
>  <Name>  (1) 
BDB13749

>  <Target>  (1) 
11-beta-Hydroxysteroid Dehydrogenase 1 (11-beta-HSD1)

>  <Ki_in_nM>  (1) 
4

>  <Kd_from_ITC>  (1) 
false

>  <Uniprot_ID>  (1) 
P28845

>  <source_organism>  (1) 
Homo sapiens (human)

>  <SourceTag>  (1) 
11betaHSD1

>  <s_i_glide_gridfile>  (1) 
11betahsd1_glide-grid

>  <i_i_glide_lignum>  (1) 
24

>  <i_i_glide_rotatable_bonds>  (1) 
4

>  <r_i_docking_score>  (1) 
-8.71695918998103

>  <r_i_glide_ligand_efficiency>  (1) 
-0.435847959499051

>  <r_i_glide_ligand_efficiency_sa>  (1) 
-1.18307337823978

>  <r_i_glide_ligand_efficiency_ln>  (1) 
-2.18156738069634

>  <r_i_glide_gscore>  (1) 
-8.71695918998103

>  <r_i_glide_lipo>  (1) 
-3.73248167996435

>  <r_i_glide_hbond>  (1) 
-0.27127074643118

>  <r_i_glide_metal>  (1) 
-0

>  <r_i_glide_rewards>  (1) 
-2.99167043536752

>  <r_i_glide_evdw>  (1) 
-36.2809524536133

>  <r_i_glide_ecoul>  (1) 
-3.60363101959229

>  <r_i_glide_erotb>  (1) 
0.633055947401534

>  <r_i_glide_esite>  (1) 
0

>  <r_i_glide_emodel>  (1) 
-60.6727431517129

>  <r_i_glide_energy>  (1) 
-39.8845834732056

>  <r_i_glide_einternal>  (1) 
1.80759787559509

>  <i_i_glide_confnum>  (1) 
9

>  <i_i_glide_posenum>  (1) 
176

>  <r_i_glide_eff_state_penalty>  (1) 
0

$$$$
