BDB50317220-9-0000
     RDKit          3D

 27 31  0  0  1  0  0  0  0  0999 V2000
   35.1857   30.6000   90.2469 C   0  0  0  0  0  0  0  0  0  0  0  0
   35.3516   31.1349   91.6886 C   0  0  1  0  0  0  0  0  0  0  0  0
   34.8349   31.7383   89.2618 C   0  0  2  0  0  0  0  0  0  0  0  0
   36.4847   32.2023   91.6679 C   0  0  0  0  0  0  0  0  0  0  0  0
   35.9503   32.8088   89.3253 C   0  0  0  0  0  0  0  0  0  0  0  0
   36.1667   33.4049   90.7287 C   0  0  1  0  0  0  0  0  0  0  0  0
   33.5333   32.4148   89.7464 C   0  0  0  0  0  0  0  0  0  0  0  0
   33.6539   33.0174   91.1751 C   0  0  1  0  0  0  0  0  0  0  0  0
   34.0262   31.8273   92.1094 C   0  0  0  0  0  0  0  0  0  0  0  0
   34.8398   34.0447   91.2059 C   0  0  1  0  0  0  0  0  0  0  0  0
   34.2651   35.6634   92.9538 C   0  0  0  0  0  0  0  0  0  0  0  0
   34.6257   36.2871   94.3233 C   0  0  2  0  0  0  0  0  0  0  0  0
   33.3156   36.0639   92.2838 O   0  0  0  0  0  0  0  0  0  0  0  0
   34.1915   35.4391   95.4238 N   0  0  0  0  0  0  0  0  0  0  0  0
   34.0638   36.2956   96.5970 C   0  0  0  0  0  0  0  0  0  0  0  0
   33.5843   37.6434   96.0747 C   0  0  0  0  0  0  0  0  0  0  0  0
   33.8862   37.6155   94.5824 C   0  0  0  0  0  0  0  0  0  0  0  0
   34.8796   34.1624   95.6231 C   0  0  0  0  0  0  0  0  0  0  0  0
   36.2926   34.2375   96.1834 C   0  0  0  0  0  0  0  0  0  0  0  0
   37.4458   34.4264   95.4054 C   0  0  0  0  0  0  0  0  0  0  0  0
   38.7042   34.4635   96.0259 C   0  0  0  0  0  0  0  0  0  0  0  0
   38.7809   34.2964   97.4139 C   0  0  0  0  0  0  0  0  0  0  0  0
   37.6405   34.0639   98.1534 C   0  0  0  0  0  0  0  0  0  0  0  0
   36.4039   34.0639   97.5501 C   0  0  0  0  0  0  0  0  0  0  0  0
   39.9863   34.3953   98.2106 C   0  0  0  0  0  0  0  0  0  0  0  0
   40.9139   34.4636   98.8915 N   0  0  0  0  0  0  0  0  0  0  0  0
   35.0419   34.6684   92.5086 N   0  0  0  0  0  0  0  0  0  0  0  0
  2  1  1  6
  3  1  1  1
  2  4  1  0
  2  9  1  0
  3  5  1  0
  3  7  1  0
  6  4  1  1
  5  6  1  0
  6 10  1  0
  8  7  1  6
  8 10  1  0
  8  9  1  0
 10 27  1  1
 12 11  1  6
 11 13  2  0
 11 27  1  0
 12 14  1  0
 12 17  1  0
 14 15  1  0
 14 18  1  0
 15 16  1  0
 16 17  1  0
 18 19  1  0
 19 20  2  0
 19 24  1  0
 20 21  1  0
 21 22  2  0
 22 23  1  0
 22 25  1  0
 23 24  2  0
 25 26  3  0
M  END
>  <Name>  (1) 
BDB50317220

>  <Target>  (1) 
11-beta-Hydroxysteroid Dehydrogenase 1 (11-beta-HSD1)

>  <IC50_in_nM>  (1) 
 0.03

>  <Kd_from_ITC>  (1) 
false

>  <Uniprot_ID>  (1) 
P28845

>  <source_organism>  (1) 
Homo sapiens

>  <SourceTag>  (1) 
11betaHSD1

>  <s_i_glide_gridfile>  (1) 
11betahsd1_glide-grid

>  <i_i_glide_lignum>  (1) 
10

>  <i_i_glide_rotatable_bonds>  (1) 
5

>  <r_i_docking_score>  (1) 
-9.82234761767167

>  <r_i_glide_ligand_efficiency>  (1) 
-0.363790652506358

>  <r_i_glide_ligand_efficiency_sa>  (1) 
-1.09137195632008

>  <r_i_glide_ligand_efficiency_ln>  (1) 
-2.28648059133765

>  <r_i_glide_gscore>  (1) 
-9.82234761767167

>  <r_i_glide_lipo>  (1) 
-5.50826949550899

>  <r_i_glide_hbond>  (1) 
-0.0589108222832558

>  <r_i_glide_metal>  (1) 
-0

>  <r_i_glide_rewards>  (1) 
-2.46207017925323

>  <r_i_glide_evdw>  (1) 
-37.9080696105957

>  <r_i_glide_ecoul>  (1) 
-4.16525316238403

>  <r_i_glide_erotb>  (1) 
0.727094334261191

>  <r_i_glide_esite>  (1) 
0

>  <r_i_glide_emodel>  (1) 
-51.6547191259883

>  <r_i_glide_energy>  (1) 
-42.0733227729797

>  <r_i_glide_einternal>  (1) 
25.6458625793457

>  <i_i_glide_confnum>  (1) 
7

>  <i_i_glide_posenum>  (1) 
148

>  <r_i_glide_eff_state_penalty>  (1) 
0

$$$$
