BDB50216921-25-0000
     RDKit          3D

 45 49  0  0  1  0  0  0  0  0999 V2000
   35.1659   34.6810   95.1162 C   0  0  0  0  0  0  0  0  0  0  0  0
   35.6845   33.6544   96.1541 C   0  0  0  0  0  0  0  0  0  0  0  0
   37.1817   33.9347   96.3454 C   0  0  0  0  0  0  0  0  0  0  0  0
   37.5678   35.0137   95.3414 C   0  0  0  0  0  0  0  0  0  0  0  0
   36.2747   35.7434   94.9723 C   0  0  0  0  0  0  0  0  0  0  0  0
   34.9248   34.0384   93.9030 O   0  0  0  0  0  0  0  0  0  0  0  0
   33.7926   35.2637   95.4450 C   0  0  0  0  0  0  0  0  0  0  0  0
   32.9182   34.8737   94.4553 N   0  0  0  0  0  0  0  0  0  0  0  0
   33.6040   34.1979   93.6270 C   0  0  0  0  0  0  0  0  0  0  0  0
   33.5276   35.9535   96.4296 O   0  0  0  0  0  0  0  0  0  0  0  0
   34.8295   32.4687   88.7082 C   0  0  0  0  0  0  0  0  0  0  0  0
   35.8402   32.7933   89.8416 C   0  0  2  0  0  0  0  0  0  0  0  0
   33.6202   31.6481   89.2156 C   0  0  1  0  0  0  0  0  0  0  0  0
   36.3196   31.4568   90.4767 C   0  0  0  0  0  0  0  0  0  0  0  0
   34.1672   30.3365   89.8381 C   0  0  0  0  0  0  0  0  0  0  0  0
   35.1383   30.6059   91.0219 C   0  0  2  0  0  0  0  0  0  0  0  0
   32.9194   32.4670   90.3302 C   0  0  0  0  0  0  0  0  0  0  0  0
   33.8914   32.7832   91.5037 C   0  0  2  0  0  0  0  0  0  0  0  0
   35.0970   33.5928   90.9402 C   0  0  0  0  0  0  0  0  0  0  0  0
   34.3949   31.4403   92.1016 C   0  0  0  0  0  0  0  0  0  0  0  0
   33.1312   33.5620   92.4929 N   0  0  0  0  0  0  0  0  0  0  0  0
   35.5419   32.6298   95.7999 H   0  0  0  0  0  0  0  0  0  0  0  0
   35.1647   33.7275   97.1118 H   0  0  0  0  0  0  0  0  0  0  0  0
   37.7761   33.0411   96.1548 H   0  0  0  0  0  0  0  0  0  0  0  0
   37.3873   34.2625   97.3674 H   0  0  0  0  0  0  0  0  0  0  0  0
   37.9886   34.5437   94.4554 H   0  0  0  0  0  0  0  0  0  0  0  0
   38.3349   35.6763   95.7388 H   0  0  0  0  0  0  0  0  0  0  0  0
   36.1086   36.5929   95.6388 H   0  0  0  0  0  0  0  0  0  0  0  0
   36.3293   36.1422   93.9583 H   0  0  0  0  0  0  0  0  0  0  0  0
   35.3157   31.9181   87.9042 H   0  0  0  0  0  0  0  0  0  0  0  0
   34.4797   33.3929   88.2467 H   0  0  0  0  0  0  0  0  0  0  0  0
   36.6882   33.3632   89.4558 H   0  0  0  0  0  0  0  0  0  0  0  0
   32.9290   31.4350   88.4000 H   0  0  0  0  0  0  0  0  0  0  0  0
   36.8888   30.8719   89.7530 H   0  0  0  0  0  0  0  0  0  0  0  0
   37.0269   31.6638   91.2830 H   0  0  0  0  0  0  0  0  0  0  0  0
   33.3405   29.6997   90.1499 H   0  0  0  0  0  0  0  0  0  0  0  0
   34.6816   29.7574   89.0708 H   0  0  0  0  0  0  0  0  0  0  0  0
   35.5035   29.6673   91.4428 H   0  0  0  0  0  0  0  0  0  0  0  0
   32.0536   31.9112   90.6925 H   0  0  0  0  0  0  0  0  0  0  0  0
   32.5195   33.3911   89.9077 H   0  0  0  0  0  0  0  0  0  0  0  0
   34.7488   34.5474   90.5495 H   0  0  0  0  0  0  0  0  0  0  0  0
   35.8215   33.8454   91.7141 H   0  0  0  0  0  0  0  0  0  0  0  0
   35.0651   31.6205   92.9443 H   0  0  0  0  0  0  0  0  0  0  0  0
   33.5603   30.8662   92.5082 H   0  0  0  0  0  0  0  0  0  0  0  0
   32.1827   33.2331   92.5974 H   0  0  0  0  0  0  0  0  0  0  0  0
  1  5  1  0
  1  2  1  0
  1  6  1  0
  1  7  1  0
  2  3  1  0
  2 22  1  0
  2 23  1  0
  3  4  1  0
  3 24  1  0
  3 25  1  0
  4  5  1  0
  4 26  1  0
  4 27  1  0
  5 28  1  0
  5 29  1  0
  6  9  1  0
  7  8  1  0
  7 10  2  0
  8  9  2  0
  9 21  1  0
 11 12  1  0
 11 13  1  0
 11 30  1  0
 11 31  1  0
 12 14  1  0
 12 19  1  0
 12 32  1  6
 13 15  1  0
 13 17  1  0
 13 33  1  6
 14 16  1  0
 14 34  1  0
 14 35  1  0
 15 16  1  0
 15 36  1  0
 15 37  1  0
 16 20  1  0
 16 38  1  1
 17 18  1  0
 17 39  1  0
 17 40  1  0
 18 20  1  0
 18 19  1  0
 18 21  1  1
 19 41  1  0
 19 42  1  0
 20 43  1  0
 20 44  1  0
 21 45  1  0
M  END
>  <Name>  (1) 
BDB50216921

>  <Target>  (1) 
11-beta-Hydroxysteroid Dehydrogenase 1 (11-beta-HSD1)

>  <Ki_in_nM>  (1) 
4

>  <Kd_from_ITC>  (1) 
false

>  <Uniprot_ID>  (1) 
P28845

>  <source_organism>  (1) 
Homo sapiens

>  <SourceTag>  (1) 
11betaHSD1

>  <s_i_glide_gridfile>  (1) 
11betahsd1_glide-grid

>  <i_i_glide_lignum>  (1) 
26

>  <i_i_glide_rotatable_bonds>  (1) 
2

>  <r_i_docking_score>  (1) 
-9.29260443767993

>  <r_i_glide_ligand_efficiency>  (1) 
-0.442504973222854

>  <r_i_glide_ligand_efficiency_sa>  (1) 
-1.22083766755446

>  <r_i_glide_ligand_efficiency_ln>  (1) 
-2.29757766974104

>  <r_i_glide_gscore>  (1) 
-9.29260443767993

>  <r_i_glide_lipo>  (1) 
-4.09799590719304

>  <r_i_glide_hbond>  (1) 
-0.271898760327343

>  <r_i_glide_metal>  (1) 
-0

>  <r_i_glide_rewards>  (1) 
-2.97979207110415

>  <r_i_glide_evdw>  (1) 
-42.4248886108398

>  <r_i_glide_ecoul>  (1) 
-1.72771298885345

>  <r_i_glide_erotb>  (1) 
0.437483679814617

>  <r_i_glide_esite>  (1) 
0

>  <r_i_glide_emodel>  (1) 
-65.9794312431415

>  <r_i_glide_energy>  (1) 
-44.1526015996933

>  <r_i_glide_einternal>  (1) 
3.51982402801514

>  <i_i_glide_confnum>  (1) 
2

>  <i_i_glide_posenum>  (1) 
180

>  <r_i_glide_eff_state_penalty>  (1) 
0

$$$$
