BDB50313286-10-0000
     RDKit          3D

 48 50  0  0  1  0  0  0  0  0999 V2000
   32.5377   30.3298   89.3172 C   0  0  0  0  0  0  0  0  0  0  0  0
   32.1720   30.8694   88.3317 N   0  0  0  0  0  0  0  0  0  0  0  0
   33.8881   30.7847   88.6588 C   0  0  1  0  0  0  0  0  0  0  0  0
   33.6943   31.1871   88.1743 C   0  0  2  0  0  0  0  0  0  0  0  0
   34.3129   30.0707   87.3978 C   0  0  0  0  0  0  0  0  0  0  0  0
   34.7276   32.4807   88.3666 C   0  0  0  0  0  0  0  0  0  0  0  0
   35.1225   31.6647   88.9845 N   0  0  0  0  0  0  0  0  0  0  0  0
   31.5215   32.2200   88.6866 C   0  0  0  0  0  0  0  0  0  0  0  0
   35.0650   33.1220   91.6237 C   0  0  0  0  0  0  0  0  0  0  0  0
   33.8857   32.7772   92.2881 C   0  0  0  0  0  0  0  0  0  0  0  0
   33.2801   33.6950   93.1485 C   0  0  0  0  0  0  0  0  0  0  0  0
   33.8448   34.9573   93.3604 C   0  0  0  0  0  0  0  0  0  0  0  0
   35.0249   35.2903   92.6907 C   0  0  0  0  0  0  0  0  0  0  0  0
   35.6432   34.3774   91.8394 C   0  0  0  0  0  0  0  0  0  0  0  0
   35.9087   31.9193   90.5628 S   0  0  0  0  0  0  0  0  0  0  0  0
   37.1364   32.5341   90.0700 O   0  0  0  0  0  0  0  0  0  0  0  0
   36.0375   30.6629   91.3064 O   0  0  0  0  0  0  0  0  0  0  0  0
   33.1569   35.9661   94.3011 C   0  0  0  0  0  0  0  0  0  0  0  0
   33.9448   36.4281   95.5736 C   0  0  0  0  0  0  0  0  0  0  0  0
   34.4709   35.2034   96.3208 C   0  0  0  0  0  0  0  0  0  0  0  0
   35.1449   37.3214   95.2153 C   0  0  0  0  0  0  0  0  0  0  0  0
   33.0138   37.1971   96.5387 C   0  0  0  0  0  0  0  0  0  0  0  0
   32.3869   29.2308   89.2971 H   0  0  0  0  0  0  0  0  0  0  0  0
   32.6103   30.7801   90.3113 H   0  0  0  0  0  0  0  0  0  0  0  0
   34.3843   30.0337   89.6902 H   0  0  0  0  0  0  0  0  0  0  0  0
   33.2128   32.1096   87.3519 H   0  0  0  0  0  0  0  0  0  0  0  0
   33.6946   29.2572   87.0559 H   0  0  0  0  0  0  0  0  0  0  0  0
   35.3153   30.1975   86.9952 H   0  0  0  0  0  0  0  0  0  0  0  0
   35.3586   32.6713   87.4873 H   0  0  0  0  0  0  0  0  0  0  0  0
   34.0066   33.2705   88.6327 H   0  0  0  0  0  0  0  0  0  0  0  0
   32.2427   32.8540   89.2440 H   0  0  0  0  0  0  0  0  0  0  0  0
   30.7150   31.9813   89.3161 H   0  0  0  0  0  0  0  0  0  0  0  0
   31.2519   32.8300   87.8036 H   0  0  0  0  0  0  0  0  0  0  0  0
   33.4458   31.8021   92.1380 H   0  0  0  0  0  0  0  0  0  0  0  0
   32.3617   33.4302   93.6490 H   0  0  0  0  0  0  0  0  0  0  0  0
   35.4667   36.2628   92.8177 H   0  0  0  0  0  0  0  0  0  0  0  0
   36.5662   34.6503   91.3431 H   0  0  0  0  0  0  0  0  0  0  0  0
   32.2112   35.5259   94.6252 H   0  0  0  0  0  0  0  0  0  0  0  0
   32.8820   36.8382   93.7083 H   0  0  0  0  0  0  0  0  0  0  0  0
   35.1535   34.6368   95.6837 H   0  0  0  0  0  0  0  0  0  0  0  0
   33.6462   34.5556   96.6232 H   0  0  0  0  0  0  0  0  0  0  0  0
   35.0146   35.5154   97.2133 H   0  0  0  0  0  0  0  0  0  0  0  0
   34.8260   38.1934   94.6431 H   0  0  0  0  0  0  0  0  0  0  0  0
   35.8635   36.7576   94.6321 H   0  0  0  0  0  0  0  0  0  0  0  0
   35.6823   37.6544   96.1020 H   0  0  0  0  0  0  0  0  0  0  0  0
   32.1985   36.5462   96.8652 H   0  0  0  0  0  0  0  0  0  0  0  0
   32.5750   38.0636   96.0425 H   0  0  0  0  0  0  0  0  0  0  0  0
   33.5511   37.5410   97.4323 H   0  0  0  0  0  0  0  0  0  0  0  0
  1  2  1  0
  1  4  1  0
  1 23  1  0
  1 24  1  0
  2  8  1  0
  2  3  1  0
  3  5  1  0
  3  6  1  0
  3 25  1  1
  4  7  1  0
  4  5  1  0
  4 26  1  6
  5 27  1  0
  5 28  1  0
  6  7  1  0
  6 29  1  0
  6 30  1  0
 15  7  1  0
  8 31  1  0
  8 32  1  0
  8 33  1  0
  9 14  1  0
  9 15  1  0
  9 10  2  0
 10 11  1  0
 10 34  1  0
 11 12  2  0
 11 35  1  0
 12 13  1  0
 12 18  1  0
 13 14  2  0
 13 36  1  0
 14 37  1  0
 15 16  2  0
 15 17  2  0
 19 18  1  0
 18 38  1  0
 18 39  1  0
 19 20  1  0
 19 21  1  0
 19 22  1  0
 20 40  1  0
 20 41  1  0
 20 42  1  0
 21 43  1  0
 21 44  1  0
 21 45  1  0
 22 46  1  0
 22 47  1  0
 22 48  1  0
M  END
>  <Name>  (1) 
BDB50313286

>  <Target>  (1) 
11-beta-Hydroxysteroid Dehydrogenase 1 (11-beta-HSD1)

>  <IC50_in_nM>  (1) 
 0.33

>  <Kd_from_ITC>  (1) 
false

>  <Uniprot_ID>  (1) 
P28845

>  <source_organism>  (1) 
Homo sapiens

>  <SourceTag>  (1) 
11betaHSD1

>  <s_i_glide_gridfile>  (1) 
11betahsd1_glide-grid

>  <i_i_glide_lignum>  (1) 
11

>  <i_i_glide_rotatable_bonds>  (1) 
4

>  <r_i_docking_score>  (1) 
-6.9271002325608

>  <r_i_glide_ligand_efficiency>  (1) 
-0.314868192389127

>  <r_i_glide_ligand_efficiency_sa>  (1) 
-0.882273058137654

>  <r_i_glide_ligand_efficiency_ln>  (1) 
-1.69323596895808

>  <r_i_glide_gscore>  (1) 
-6.9271002325608

>  <r_i_glide_lipo>  (1) 
-4.50043158440698

>  <r_i_glide_hbond>  (1) 
0

>  <r_i_glide_metal>  (1) 
-0

>  <r_i_glide_rewards>  (1) 
-1.91570850403538

>  <r_i_glide_evdw>  (1) 
-22.8094348907471

>  <r_i_glide_ecoul>  (1) 
0.599920690059662

>  <r_i_glide_erotb>  (1) 
0.539523496909967

>  <r_i_glide_esite>  (1) 
0

>  <r_i_glide_emodel>  (1) 
-35.030173761012

>  <r_i_glide_energy>  (1) 
-22.2095142006874

>  <r_i_glide_einternal>  (1) 
0.951564073562622

>  <i_i_glide_confnum>  (1) 
1

>  <i_i_glide_posenum>  (1) 
218

>  <r_i_glide_eff_state_penalty>  (1) 
0

$$$$
