BDB50294771-3-0000
     RDKit          3D

 65 68  0  0  1  0  0  0  0  0999 V2000
   33.7910   35.6397   94.9678 C   0  0  0  0  0  0  0  0  0  0  0  0
   33.7506   34.9718   96.3618 C   0  0  0  0  0  0  0  0  0  0  0  0
   33.4627   36.0590   97.3843 C   0  0  0  0  0  0  0  0  0  0  0  0
   32.7047   37.1258   96.6044 C   0  0  0  0  0  0  0  0  0  0  0  0
   32.6559   36.6638   95.1354 C   0  0  0  0  0  0  0  0  0  0  0  0
   35.9648   30.4251   89.6477 C   0  0  0  0  0  0  0  0  0  0  0  0
   36.1224   31.9613   89.7571 C   0  0  1  0  0  0  0  0  0  0  0  0
   34.6862   29.9400   90.3653 C   0  0  2  0  0  0  0  0  0  0  0  0
   34.8549   32.6074   89.1296 C   0  0  0  0  0  0  0  0  0  0  0  0
   33.4675   30.6518   89.7412 C   0  0  0  0  0  0  0  0  0  0  0  0
   33.5353   32.1938   89.8720 C   0  0  1  0  0  0  0  0  0  0  0  0
   34.7799   30.3743   91.8465 C   0  0  0  0  0  0  0  0  0  0  0  0
   34.9100   31.9041   92.0413 C   0  0  1  0  0  0  0  0  0  0  0  0
   36.1900   32.3288   91.2634 C   0  0  0  0  0  0  0  0  0  0  0  0
   33.6825   32.6236   91.3781 C   0  0  1  0  0  0  0  0  0  0  0  0
   33.8047   34.0808   91.3935 N   0  0  0  0  0  0  0  0  0  0  0  0
   33.7034   34.9682   92.3870 C   0  0  0  0  0  0  0  0  0  0  0  0
   33.5030   34.5566   93.8571 C   0  0  0  0  0  0  0  0  0  0  0  0
   33.7154   36.1455   92.0756 O   0  0  0  0  0  0  0  0  0  0  0  0
   35.1079   36.4526   94.7386 C   0  0  0  0  0  0  0  0  0  0  0  0
   36.4408   35.7216   94.7489 C   0  0  0  0  0  0  0  0  0  0  0  0
   36.4716   34.4193   95.0594 N   0  0  0  0  0  0  0  0  0  0  0  0
   37.4449   36.3862   94.5525 O   0  0  0  0  0  0  0  0  0  0  0  0
   37.6636   33.6717   95.4190 C   0  0  0  0  0  0  0  0  0  0  0  0
   38.4287   34.2792   96.6204 C   0  0  0  0  0  0  0  0  0  0  0  0
   37.5839   34.4577   97.9002 C   0  0  0  0  0  0  0  0  0  0  0  0
   39.7154   33.5224   96.8817 C   0  0  0  0  0  0  0  0  0  0  0  0
   32.9155   34.2854   96.3425 H   0  0  0  0  0  0  0  0  0  0  0  0
   34.6001   34.3572   96.6477 H   0  0  0  0  0  0  0  0  0  0  0  0
   32.8925   35.6733   98.2282 H   0  0  0  0  0  0  0  0  0  0  0  0
   34.3947   36.4638   97.7796 H   0  0  0  0  0  0  0  0  0  0  0  0
   31.7176   37.2636   97.0361 H   0  0  0  0  0  0  0  0  0  0  0  0
   33.2484   38.0640   96.6752 H   0  0  0  0  0  0  0  0  0  0  0  0
   32.6991   37.4843   94.4159 H   0  0  0  0  0  0  0  0  0  0  0  0
   31.7154   36.1633   94.9394 H   0  0  0  0  0  0  0  0  0  0  0  0
   36.8418   29.9292   90.0680 H   0  0  0  0  0  0  0  0  0  0  0  0
   35.9332   30.1154   88.6023 H   0  0  0  0  0  0  0  0  0  0  0  0
   37.0293   32.3238   89.2762 H   0  0  0  0  0  0  0  0  0  0  0  0
   34.5767   28.8637   90.2648 H   0  0  0  0  0  0  0  0  0  0  0  0
   34.7886   32.3268   88.0769 H   0  0  0  0  0  0  0  0  0  0  0  0
   34.9721   33.6888   89.1096 H   0  0  0  0  0  0  0  0  0  0  0  0
   32.5262   30.2852   90.1543 H   0  0  0  0  0  0  0  0  0  0  0  0
   33.4100   30.3861   88.6837 H   0  0  0  0  0  0  0  0  0  0  0  0
   32.6633   32.6621   89.4096 H   0  0  0  0  0  0  0  0  0  0  0  0
   35.6175   29.8659   92.3278 H   0  0  0  0  0  0  0  0  0  0  0  0
   33.8947   30.0614   92.3987 H   0  0  0  0  0  0  0  0  0  0  0  0
   35.0250   32.1158   93.1008 H   0  0  0  0  0  0  0  0  0  0  0  0
   36.3657   33.4004   91.3752 H   0  0  0  0  0  0  0  0  0  0  0  0
   37.0672   31.8657   91.7146 H   0  0  0  0  0  0  0  0  0  0  0  0
   32.7741   32.3652   91.9270 H   0  0  0  0  0  0  0  0  0  0  0  0
   33.9574   34.4885   90.4842 H   0  0  0  0  0  0  0  0  0  0  0  0
   34.1247   33.6954   94.0602 H   0  0  0  0  0  0  0  0  0  0  0  0
   32.4820   34.1891   93.9490 H   0  0  0  0  0  0  0  0  0  0  0  0
   35.2084   37.2058   95.5220 H   0  0  0  0  0  0  0  0  0  0  0  0
   35.0705   37.0436   93.8267 H   0  0  0  0  0  0  0  0  0  0  0  0
   35.5905   33.9483   95.1891 H   0  0  0  0  0  0  0  0  0  0  0  0
   38.3171   33.5768   94.5523 H   0  0  0  0  0  0  0  0  0  0  0  0
   37.3417   32.6582   95.6639 H   0  0  0  0  0  0  0  0  0  0  0  0
   38.7686   35.2656   96.3234 H   0  0  0  0  0  0  0  0  0  0  0  0
   37.1498   33.5194   98.2378 H   0  0  0  0  0  0  0  0  0  0  0  0
   36.7604   35.1555   97.7424 H   0  0  0  0  0  0  0  0  0  0  0  0
   38.1850   34.8542   98.7179 H   0  0  0  0  0  0  0  0  0  0  0  0
   39.5375   32.5179   97.2639 H   0  0  0  0  0  0  0  0  0  0  0  0
   40.2696   33.4387   95.9441 H   0  0  0  0  0  0  0  0  0  0  0  0
   40.3423   34.0634   97.5943 H   0  0  0  0  0  0  0  0  0  0  0  0
  1  5  1  0
  1  2  1  0
  1 18  1  0
  1 20  1  0
  2  3  1  0
  2 28  1  0
  2 29  1  0
  3  4  1  0
  3 30  1  0
  3 31  1  0
  4  5  1  0
  4 32  1  0
  4 33  1  0
  5 34  1  0
  5 35  1  0
  6  7  1  0
  6  8  1  0
  6 36  1  0
  6 37  1  0
  7 14  1  0
  7  9  1  0
  7 38  1  6
  8 12  1  0
  8 10  1  0
  8 39  1  1
  9 11  1  0
  9 40  1  0
  9 41  1  0
 10 11  1  0
 10 42  1  0
 10 43  1  0
 11 15  1  0
 11 44  1  6
 12 13  1  0
 12 45  1  0
 12 46  1  0
 13 15  1  0
 13 14  1  0
 13 47  1  1
 14 48  1  0
 14 49  1  0
 15 16  1  0
 15 50  1  1
 16 17  1  0
 16 51  1  0
 17 18  1  0
 17 19  2  0
 18 52  1  0
 18 53  1  0
 20 21  1  0
 20 54  1  0
 20 55  1  0
 21 22  1  0
 21 23  2  0
 22 24  1  0
 22 56  1  0
 24 25  1  0
 24 57  1  0
 24 58  1  0
 25 26  1  0
 25 27  1  0
 25 59  1  0
 26 60  1  0
 26 61  1  0
 26 62  1  0
 27 63  1  0
 27 64  1  0
 27 65  1  0
M  END
>  <Name>  (1) 
BDB50294771

>  <Target>  (1) 
11-beta-Hydroxysteroid Dehydrogenase 1 (11-beta-HSD1)

>  <IC50_in_nM>  (1) 
 9

>  <Kd_from_ITC>  (1) 
false

>  <Uniprot_ID>  (1) 
P28845

>  <source_organism>  (1) 
Homo sapiens

>  <SourceTag>  (1) 
11betaHSD1

>  <s_i_glide_gridfile>  (1) 
11betahsd1_glide-grid

>  <i_i_glide_lignum>  (1) 
4

>  <i_i_glide_rotatable_bonds>  (1) 
9

>  <r_i_docking_score>  (1) 
-7.49319065815426

>  <r_i_glide_ligand_efficiency>  (1) 
-0.277525579931639

>  <r_i_glide_ligand_efficiency_sa>  (1) 
-0.832576738880239

>  <r_i_glide_ligand_efficiency_ln>  (1) 
-1.74429125031554

>  <r_i_glide_gscore>  (1) 
-7.49319065815426

>  <r_i_glide_lipo>  (1) 
-5.60999916557054

>  <r_i_glide_hbond>  (1) 
-0.312808500191089

>  <r_i_glide_metal>  (1) 
-0

>  <r_i_glide_rewards>  (1) 
0.335362495601402

>  <r_i_glide_evdw>  (1) 
-36.590705871582

>  <r_i_glide_ecoul>  (1) 
-5.01061582565308

>  <r_i_glide_erotb>  (1) 
0.675382179433023

>  <r_i_glide_esite>  (1) 
0

>  <r_i_glide_emodel>  (1) 
-47.0898624952531

>  <r_i_glide_energy>  (1) 
-41.6013216972351

>  <r_i_glide_einternal>  (1) 
6.85052871704102

>  <i_i_glide_confnum>  (1) 
137

>  <i_i_glide_posenum>  (1) 
95

>  <r_i_glide_eff_state_penalty>  (1) 
0

$$$$
