BDB50239407-14-0000
     RDKit          3D

 22 25  0  0  1  0  0  0  0  0999 V2000
   33.0771   35.9445   95.7560 C   0  0  0  0  0  0  0  0  0  0  0  0
   32.9153   37.3946   95.3275 C   0  0  0  0  0  0  0  0  0  0  0  0
   34.4020   37.3894   95.0104 C   0  0  0  0  0  0  0  0  0  0  0  0
   34.3918   35.8365   94.9346 C   0  0  0  0  0  0  0  0  0  0  0  0
   35.7153   32.1530   93.2370 C   0  0  0  0  0  0  0  0  0  0  0  0
   34.4065   32.7244   93.8188 C   0  0  0  0  0  0  0  0  0  0  0  0
   34.0124   33.9445   93.1311 N   0  0  0  0  0  0  0  0  0  0  0  0
   35.6308   31.4270   91.8640 C   0  0  0  0  0  0  0  0  0  0  0  0
   35.5905   32.3389   90.6193 C   0  0  0  0  0  0  0  0  0  0  0  0
   34.1943   32.4866   89.9893 C   0  0  0  0  0  0  0  0  0  0  0  0
   33.0834   32.8405   90.9904 C   0  0  0  0  0  0  0  0  0  0  0  0
   33.4542   34.0121   91.8777 C   0  0  0  0  0  0  0  0  0  0  0  0
   33.3154   35.2456   91.5164 N   0  0  0  0  0  0  0  0  0  0  0  0
   33.7153   36.0566   92.5514 N   0  0  0  0  0  0  0  0  0  0  0  0
   34.0941   35.2768   93.5301 C   0  0  0  0  0  0  0  0  0  0  0  0
   35.6268   35.1686   95.5149 C   0  0  0  0  0  0  0  0  0  0  0  0
   36.8485   35.2721   94.8385 C   0  0  0  0  0  0  0  0  0  0  0  0
   38.0060   34.7752   95.4249 C   0  0  0  0  0  0  0  0  0  0  0  0
   37.9242   34.1995   96.6875 C   0  0  0  0  0  0  0  0  0  0  0  0
   36.7179   34.0788   97.3535 C   0  0  0  0  0  0  0  0  0  0  0  0
   35.5628   34.5500   96.7658 C   0  0  0  0  0  0  0  0  0  0  0  0
   39.3279   33.6653   97.4887 Cl  0  0  0  0  0  0  0  0  0  0  0  0
  1  4  1  0
  1  2  1  0
  2  3  1  0
  3  4  1  0
  4 15  1  0
  4 16  1  0
  5  6  1  0
  5  8  1  0
  6  7  1  0
  7 12  1  0
  7 15  1  0
  8  9  1  0
  9 10  1  0
 10 11  1  0
 11 12  1  0
 12 13  2  0
 13 14  1  0
 14 15  2  0
 16 17  2  0
 16 21  1  0
 17 18  1  0
 18 19  2  0
 19 20  1  0
 19 22  1  0
 20 21  2  0
M  END
>  <Name>  (1) 
BDB50239407

>  <Target>  (1) 
11-beta-Hydroxysteroid Dehydrogenase 1 (11-beta-HSD1)

>  <IC50_in_nM>  (1) 
 1.3

>  <Kd_from_ITC>  (1) 
false

>  <Uniprot_ID>  (1) 
P28845

>  <source_organism>  (1) 
Homo sapiens

>  <SourceTag>  (1) 
11betaHSD1

>  <s_i_glide_gridfile>  (1) 
11betahsd1_glide-grid

>  <i_i_glide_lignum>  (1) 
15

>  <i_i_glide_rotatable_bonds>  (1) 
2

>  <r_i_docking_score>  (1) 
-8.96576522568461

>  <r_i_glide_ligand_efficiency>  (1) 
-0.407534782985664

>  <r_i_glide_ligand_efficiency_sa>  (1) 
-1.14192848935936

>  <r_i_glide_ligand_efficiency_ln>  (1) 
-2.19156005538995

>  <r_i_glide_gscore>  (1) 
-8.96576522568461

>  <r_i_glide_lipo>  (1) 
-4.36647767395817

>  <r_i_glide_hbond>  (1) 
0

>  <r_i_glide_metal>  (1) 
-0

>  <r_i_glide_rewards>  (1) 
-2.87266917741035

>  <r_i_glide_evdw>  (1) 
-34.1314811706543

>  <r_i_glide_ecoul>  (1) 
-2.55102014541626

>  <r_i_glide_erotb>  (1) 
0.37308045120453

>  <r_i_glide_esite>  (1) 
-0.0104717451754672

>  <r_i_glide_emodel>  (1) 
-53.3375193136885

>  <r_i_glide_energy>  (1) 
-36.6825013160706

>  <r_i_glide_einternal>  (1) 
1.98043406009674

>  <i_i_glide_confnum>  (1) 
20

>  <i_i_glide_posenum>  (1) 
161

>  <r_i_glide_eff_state_penalty>  (1) 
0

$$$$
