BDB50317220-9-0000
     RDKit          3D

 56 60  0  0  1  0  0  0  0  0999 V2000
   35.1857   30.6000   90.2469 C   0  0  0  0  0  0  0  0  0  0  0  0
   35.3516   31.1349   91.6886 C   0  0  1  0  0  0  0  0  0  0  0  0
   34.8349   31.7383   89.2618 C   0  0  2  0  0  0  0  0  0  0  0  0
   36.4847   32.2023   91.6679 C   0  0  0  0  0  0  0  0  0  0  0  0
   35.9503   32.8088   89.3253 C   0  0  0  0  0  0  0  0  0  0  0  0
   36.1667   33.4049   90.7287 C   0  0  1  0  0  0  0  0  0  0  0  0
   33.5333   32.4148   89.7464 C   0  0  0  0  0  0  0  0  0  0  0  0
   33.6539   33.0174   91.1751 C   0  0  1  0  0  0  0  0  0  0  0  0
   34.0262   31.8273   92.1094 C   0  0  0  0  0  0  0  0  0  0  0  0
   34.8398   34.0447   91.2059 C   0  0  1  0  0  0  0  0  0  0  0  0
   34.2651   35.6634   92.9538 C   0  0  0  0  0  0  0  0  0  0  0  0
   34.6257   36.2871   94.3233 C   0  0  2  0  0  0  0  0  0  0  0  0
   33.3156   36.0639   92.2838 O   0  0  0  0  0  0  0  0  0  0  0  0
   34.1915   35.4391   95.4238 N   0  0  0  0  0  0  0  0  0  0  0  0
   34.0638   36.2956   96.5970 C   0  0  0  0  0  0  0  0  0  0  0  0
   33.5843   37.6434   96.0747 C   0  0  0  0  0  0  0  0  0  0  0  0
   33.8862   37.6155   94.5824 C   0  0  0  0  0  0  0  0  0  0  0  0
   34.8796   34.1624   95.6231 C   0  0  0  0  0  0  0  0  0  0  0  0
   36.2926   34.2375   96.1834 C   0  0  0  0  0  0  0  0  0  0  0  0
   37.4458   34.4264   95.4054 C   0  0  0  0  0  0  0  0  0  0  0  0
   38.7042   34.4635   96.0259 C   0  0  0  0  0  0  0  0  0  0  0  0
   38.7809   34.2964   97.4139 C   0  0  0  0  0  0  0  0  0  0  0  0
   37.6405   34.0639   98.1534 C   0  0  0  0  0  0  0  0  0  0  0  0
   36.4039   34.0639   97.5501 C   0  0  0  0  0  0  0  0  0  0  0  0
   39.9863   34.3953   98.2106 C   0  0  0  0  0  0  0  0  0  0  0  0
   40.9139   34.4636   98.8915 N   0  0  0  0  0  0  0  0  0  0  0  0
   35.0419   34.6684   92.5086 N   0  0  0  0  0  0  0  0  0  0  0  0
   36.1016   30.0996   89.9270 H   0  0  0  0  0  0  0  0  0  0  0  0
   34.4121   29.8306   90.2203 H   0  0  0  0  0  0  0  0  0  0  0  0
   35.5942   30.3205   92.3731 H   0  0  0  0  0  0  0  0  0  0  0  0
   34.7232   31.3549   88.2464 H   0  0  0  0  0  0  0  0  0  0  0  0
   37.4192   31.7348   91.3522 H   0  0  0  0  0  0  0  0  0  0  0  0
   36.6831   32.5484   92.6827 H   0  0  0  0  0  0  0  0  0  0  0  0
   35.7110   33.6140   88.6299 H   0  0  0  0  0  0  0  0  0  0  0  0
   36.9021   32.4288   88.9695 H   0  0  0  0  0  0  0  0  0  0  0  0
   36.9812   34.1316   90.7201 H   0  0  0  0  0  0  0  0  0  0  0  0
   32.7110   31.6981   89.7164 H   0  0  0  0  0  0  0  0  0  0  0  0
   33.2472   33.2015   89.0460 H   0  0  0  0  0  0  0  0  0  0  0  0
   32.7150   33.4794   91.4845 H   0  0  0  0  0  0  0  0  0  0  0  0
   34.0919   32.1623   93.1438 H   0  0  0  0  0  0  0  0  0  0  0  0
   33.2192   31.0945   92.1100 H   0  0  0  0  0  0  0  0  0  0  0  0
   34.6063   34.8584   90.5258 H   0  0  0  0  0  0  0  0  0  0  0  0
   35.7073   36.4337   94.3463 H   0  0  0  0  0  0  0  0  0  0  0  0
   33.3660   35.8423   97.3028 H   0  0  0  0  0  0  0  0  0  0  0  0
   34.9950   36.3959   97.1534 H   0  0  0  0  0  0  0  0  0  0  0  0
   32.5162   37.7638   96.2550 H   0  0  0  0  0  0  0  0  0  0  0  0
   34.1148   38.4626   96.5522 H   0  0  0  0  0  0  0  0  0  0  0  0
   32.9333   37.6995   94.0580 H   0  0  0  0  0  0  0  0  0  0  0  0
   34.5159   38.4639   94.3179 H   0  0  0  0  0  0  0  0  0  0  0  0
   34.8573   33.5262   94.7428 H   0  0  0  0  0  0  0  0  0  0  0  0
   34.2556   33.6621   96.3580 H   0  0  0  0  0  0  0  0  0  0  0  0
   37.3724   34.5562   94.3367 H   0  0  0  0  0  0  0  0  0  0  0  0
   39.5967   34.6379   95.4390 H   0  0  0  0  0  0  0  0  0  0  0  0
   37.7149   33.9015   99.2194 H   0  0  0  0  0  0  0  0  0  0  0  0
   35.5194   33.9300   98.1521 H   0  0  0  0  0  0  0  0  0  0  0  0
   35.7296   34.2590   93.1209 H   0  0  0  0  0  0  0  0  0  0  0  0
  1  2  1  0
  1  3  1  0
  1 28  1  0
  1 29  1  0
  2  4  1  0
  2  9  1  0
  2 30  1  1
  3  5  1  0
  3  7  1  0
  3 31  1  6
  4  6  1  0
  4 32  1  0
  4 33  1  0
  5  6  1  0
  5 34  1  0
  5 35  1  0
  6 10  1  0
  6 36  1  6
  7  8  1  0
  7 37  1  0
  7 38  1  0
  8 10  1  0
  8  9  1  0
  8 39  1  1
  9 40  1  0
  9 41  1  0
 10 27  1  0
 10 42  1  6
 11 12  1  0
 11 13  2  0
 11 27  1  0
 12 14  1  0
 12 17  1  0
 12 43  1  6
 14 15  1  0
 14 18  1  0
 15 16  1  0
 15 44  1  0
 15 45  1  0
 16 17  1  0
 16 46  1  0
 16 47  1  0
 17 48  1  0
 17 49  1  0
 18 19  1  0
 18 50  1  0
 18 51  1  0
 19 20  2  0
 19 24  1  0
 20 21  1  0
 20 52  1  0
 21 22  2  0
 21 53  1  0
 22 23  1  0
 22 25  1  0
 23 24  2  0
 23 54  1  0
 24 55  1  0
 25 26  3  0
 27 56  1  0
M  END
>  <Name>  (1) 
BDB50317220

>  <Target>  (1) 
11-beta-Hydroxysteroid Dehydrogenase 1 (11-beta-HSD1)

>  <IC50_in_nM>  (1) 
 0.03

>  <Kd_from_ITC>  (1) 
false

>  <Uniprot_ID>  (1) 
P28845

>  <source_organism>  (1) 
Homo sapiens

>  <SourceTag>  (1) 
11betaHSD1

>  <s_i_glide_gridfile>  (1) 
11betahsd1_glide-grid

>  <i_i_glide_lignum>  (1) 
10

>  <i_i_glide_rotatable_bonds>  (1) 
5

>  <r_i_docking_score>  (1) 
-9.82234761767167

>  <r_i_glide_ligand_efficiency>  (1) 
-0.363790652506358

>  <r_i_glide_ligand_efficiency_sa>  (1) 
-1.09137195632008

>  <r_i_glide_ligand_efficiency_ln>  (1) 
-2.28648059133765

>  <r_i_glide_gscore>  (1) 
-9.82234761767167

>  <r_i_glide_lipo>  (1) 
-5.50826949550899

>  <r_i_glide_hbond>  (1) 
-0.0589108222832558

>  <r_i_glide_metal>  (1) 
-0

>  <r_i_glide_rewards>  (1) 
-2.46207017925323

>  <r_i_glide_evdw>  (1) 
-37.9080696105957

>  <r_i_glide_ecoul>  (1) 
-4.16525316238403

>  <r_i_glide_erotb>  (1) 
0.727094334261191

>  <r_i_glide_esite>  (1) 
0

>  <r_i_glide_emodel>  (1) 
-51.6547191259883

>  <r_i_glide_energy>  (1) 
-42.0733227729797

>  <r_i_glide_einternal>  (1) 
25.6458625793457

>  <i_i_glide_confnum>  (1) 
7

>  <i_i_glide_posenum>  (1) 
148

>  <r_i_glide_eff_state_penalty>  (1) 
0

$$$$
