BDB50216917-30-0000
     RDKit          3D

 19 20  0  0  1  0  0  0  0  0999 V2000
   34.7382   31.7095   90.0121 C   0  0  0  0  0  0  0  0  0  0  0  0
   34.6395   32.3024   91.2664 O   0  0  0  0  0  0  0  0  0  0  0  0
   33.2679   31.7183   89.5778 C   0  0  0  0  0  0  0  0  0  0  0  0
   32.5155   32.3036   90.5631 N   0  0  0  0  0  0  0  0  0  0  0  0
   33.3361   32.6215   91.4763 C   0  0  0  0  0  0  0  0  0  0  0  0
   32.8364   31.2702   88.5166 O   0  0  0  0  0  0  0  0  0  0  0  0
   33.0750   33.2432   92.6812 N   0  0  0  0  0  0  0  0  0  0  0  0
   34.1024   33.7309   93.6120 C   0  0  0  0  0  0  0  0  0  0  0  0
   34.9157   32.5649   94.2529 C   0  0  0  0  0  0  0  0  0  0  0  0
   35.7415   32.8905   95.5176 C   0  0  0  0  0  0  0  0  0  0  0  0
   35.0037   34.8281   92.9692 C   0  0  0  0  0  0  0  0  0  0  0  0
   35.1840   36.1200   93.7941 C   0  0  0  0  0  0  0  0  0  0  0  0
   35.4914   35.9697   95.2990 C   0  0  0  0  0  0  0  0  0  0  0  0
   36.8107   35.2645   95.6806 C   0  0  0  0  0  0  0  0  0  0  0  0
   36.9762   33.7854   95.2743 C   0  0  0  0  0  0  0  0  0  0  0  0
   35.2851   30.2670   90.2216 C   0  0  0  0  0  0  0  0  0  0  0  0
   35.5995   32.6759   89.1557 C   0  0  0  0  0  0  0  0  0  0  0  0
   35.4613   29.4149   88.9521 C   0  0  0  0  0  0  0  0  0  0  0  0
   36.9902   32.9713   89.7523 C   0  0  0  0  0  0  0  0  0  0  0  0
  1  2  1  0
  1  3  1  0
  1 16  1  0
  1 17  1  0
  2  5  1  0
  3  6  2  0
  3  4  1  0
  4  5  2  0
  5  7  1  0
  7  8  1  0
  8  9  1  0
  8 11  1  0
  9 10  1  0
 10 15  1  0
 11 12  1  0
 12 13  1  0
 13 14  1  0
 14 15  1  0
 16 18  1  0
 17 19  1  0
M  END
>  <Name>  (1) 
BDB50216917

>  <Target>  (1) 
11-beta-Hydroxysteroid Dehydrogenase 1 (11-beta-HSD1)

>  <Ki_in_nM>  (1) 
10

>  <Kd_from_ITC>  (1) 
false

>  <Uniprot_ID>  (1) 
P28845

>  <source_organism>  (1) 
Homo sapiens

>  <SourceTag>  (1) 
11betaHSD1

>  <s_i_glide_gridfile>  (1) 
11betahsd1_glide-grid

>  <i_i_glide_lignum>  (1) 
31

>  <i_i_glide_rotatable_bonds>  (1) 
4

>  <r_i_docking_score>  (1) 
-8.38533581508056

>  <r_i_glide_ligand_efficiency>  (1) 
-0.441333463951608

>  <r_i_glide_ligand_efficiency_sa>  (1) 
-1.17765494168879

>  <r_i_glide_ligand_efficiency_ln>  (1) 
-2.1258627296226

>  <r_i_glide_gscore>  (1) 
-8.38533581508056

>  <r_i_glide_lipo>  (1) 
-3.27154495027623

>  <r_i_glide_hbond>  (1) 
-0.294523656832131

>  <r_i_glide_metal>  (1) 
-0

>  <r_i_glide_rewards>  (1) 
-3.00072177432864

>  <r_i_glide_evdw>  (1) 
-37.5324249267578

>  <r_i_glide_ecoul>  (1) 
-2.95996785163879

>  <r_i_glide_erotb>  (1) 
0.502070990440156

>  <r_i_glide_esite>  (1) 
0

>  <r_i_glide_emodel>  (1) 
-58.543142759225

>  <r_i_glide_energy>  (1) 
-40.4923927783966

>  <r_i_glide_einternal>  (1) 
8.58284091949463

>  <i_i_glide_confnum>  (1) 
29

>  <i_i_glide_posenum>  (1) 
295

>  <r_i_glide_eff_state_penalty>  (1) 
0

$$$$
