BDB50210890-39-0000
     RDKit          3D

 27 30  0  0  1  0  0  0  0  0999 V2000
   35.3101   35.4391   97.3523 C   0  0  0  0  0  0  0  0  0  0  0  0
   34.2004   36.1982   97.7462 C   0  0  0  0  0  0  0  0  0  0  0  0
   33.3154   36.6724   96.7999 C   0  0  0  0  0  0  0  0  0  0  0  0
   35.5700   35.1989   96.0200 C   0  0  0  0  0  0  0  0  0  0  0  0
   34.6413   35.6051   95.0678 C   0  0  0  0  0  0  0  0  0  0  0  0
   33.5459   36.3623   95.4719 C   0  0  0  0  0  0  0  0  0  0  0  0
   32.5901   36.8638   94.1523 S   0  0  0  0  0  0  0  0  0  0  0  0
   33.6986   36.0047   92.9762 C   0  0  0  0  0  0  0  0  0  0  0  0
   34.6603   35.3089   93.7097 N   0  0  0  0  0  0  0  0  0  0  0  0
   33.5356   36.0638   91.7610 O   0  0  0  0  0  0  0  0  0  0  0  0
   35.6104   34.3005   93.1480 C   0  0  0  0  0  0  0  0  0  0  0  0
   35.4980   32.9155   93.8602 C   0  0  0  0  0  0  0  0  0  0  0  0
   34.1420   32.2496   93.5631 C   0  0  0  0  0  0  0  0  0  0  0  0
   34.1363   31.9741   92.1210 N   0  0  0  0  0  0  0  0  0  0  0  0
   34.1909   33.1855   91.2753 C   0  0  0  0  0  0  0  0  0  0  0  0
   35.5002   33.9514   91.6317 C   0  0  0  0  0  0  0  0  0  0  0  0
   34.7128   30.8246   91.6840 C   0  0  0  0  0  0  0  0  0  0  0  0
   34.5178   30.4571   90.2416 C   0  0  0  0  0  0  0  0  0  0  0  0
   35.3154   30.0638   92.4272 O   0  0  0  0  0  0  0  0  0  0  0  0
   33.2801   30.6962   89.6611 C   0  0  0  0  0  0  0  0  0  0  0  0
   33.0677   30.5340   88.2967 C   0  0  0  0  0  0  0  0  0  0  0  0
   34.1106   30.0369   87.5018 C   0  0  0  0  0  0  0  0  0  0  0  0
   35.3154   29.6638   88.1080 C   0  0  0  0  0  0  0  0  0  0  0  0
   35.5298   29.8823   89.4698 C   0  0  0  0  0  0  0  0  0  0  0  0
   33.9565   29.8744   85.9970 C   0  0  0  0  0  0  0  0  0  0  0  0
   31.8578   30.8944   87.7523 O   0  0  0  0  0  0  0  0  0  0  0  0
   31.3215   32.1183   88.2565 C   0  0  0  0  0  0  0  0  0  0  0  0
  1  2  2  0
  1  4  1  0
  2  3  1  0
  3  6  2  0
  4  5  2  0
  5  9  1  0
  5  6  1  0
  6  7  1  0
  7  8  1  0
  8  9  1  0
  8 10  2  0
  9 11  1  0
 11 16  1  0
 11 12  1  0
 12 13  1  0
 13 14  1  0
 14 15  1  0
 14 17  1  0
 15 16  1  0
 17 18  1  0
 17 19  2  0
 18 20  2  0
 18 24  1  0
 20 21  1  0
 21 22  2  0
 21 26  1  0
 22 23  1  0
 22 25  1  0
 23 24  2  0
 26 27  1  0
M  END
>  <Name>  (1) 
BDB50210890

>  <Target>  (1) 
11-beta-Hydroxysteroid Dehydrogenase 1 (11-beta-HSD1)

>  <Ki_in_nM>  (1) 
170

>  <Kd_from_ITC>  (1) 
false

>  <Uniprot_ID>  (1) 
P28845

>  <source_organism>  (1) 
Homo sapiens

>  <SourceTag>  (1) 
11betaHSD1

>  <s_i_glide_gridfile>  (1) 
11betahsd1_glide-grid

>  <i_i_glide_lignum>  (1) 
40

>  <i_i_glide_rotatable_bonds>  (1) 
4

>  <r_i_docking_score>  (1) 
-9.13257324207478

>  <r_i_glide_ligand_efficiency>  (1) 
-0.338243453410177

>  <r_i_glide_ligand_efficiency_sa>  (1) 
-1.01473035911574

>  <r_i_glide_ligand_efficiency_ln>  (1) 
-2.12591248851804

>  <r_i_glide_gscore>  (1) 
-9.13257324207478

>  <r_i_glide_lipo>  (1) 
-4.8959926380114

>  <r_i_glide_hbond>  (1) 
-0.221816972036692

>  <r_i_glide_metal>  (1) 
-0

>  <r_i_glide_rewards>  (1) 
-2.26107370291871

>  <r_i_glide_evdw>  (1) 
-31.7337055206299

>  <r_i_glide_ecoul>  (1) 
-3.76866793632507

>  <r_i_glide_erotb>  (1) 
0.398295537372285

>  <r_i_glide_esite>  (1) 
0

>  <r_i_glide_emodel>  (1) 
-39.2329504098663

>  <r_i_glide_energy>  (1) 
-35.502373456955

>  <r_i_glide_einternal>  (1) 
5.80815505981445

>  <i_i_glide_confnum>  (1) 
5

>  <i_i_glide_posenum>  (1) 
203

>  <r_i_glide_eff_state_penalty>  (1) 
0

$$$$
