BDB50210892-37-0000
     RDKit          3D

 53 56  0  0  1  0  0  0  0  0999 V2000
   35.8950   35.2632   96.9738 C   0  0  0  0  0  0  0  0  0  0  0  0
   34.7054   35.8804   97.3651 C   0  0  0  0  0  0  0  0  0  0  0  0
   33.8057   36.3734   96.4356 C   0  0  0  0  0  0  0  0  0  0  0  0
   36.1805   35.1133   95.6241 C   0  0  0  0  0  0  0  0  0  0  0  0
   35.1980   35.4774   94.7019 C   0  0  0  0  0  0  0  0  0  0  0  0
   34.0727   36.1375   95.1006 C   0  0  0  0  0  0  0  0  0  0  0  0
   33.3727   36.4431   93.9800 N   0  0  0  0  0  0  0  0  0  0  0  0
   33.9754   35.9466   92.8921 C   0  0  0  0  0  0  0  0  0  0  0  0
   35.0924   35.2993   93.3406 N   0  0  0  0  0  0  0  0  0  0  0  0
   33.5459   36.0638   91.7524 O   0  0  0  0  0  0  0  0  0  0  0  0
   35.9577   34.3725   92.5676 C   0  0  0  0  0  0  0  0  0  0  0  0
   36.1164   33.0022   93.2888 C   0  0  0  0  0  0  0  0  0  0  0  0
   34.7224   32.3445   93.4461 C   0  0  0  0  0  0  0  0  0  0  0  0
   34.3502   31.9941   92.0655 N   0  0  0  0  0  0  0  0  0  0  0  0
   34.1513   33.1495   91.1649 C   0  0  0  0  0  0  0  0  0  0  0  0
   35.4772   33.9622   91.1482 C   0  0  0  0  0  0  0  0  0  0  0  0
   34.7625   30.7797   91.6228 C   0  0  0  0  0  0  0  0  0  0  0  0
   34.5283   30.4005   90.1927 C   0  0  0  0  0  0  0  0  0  0  0  0
   35.3163   29.9872   92.3641 O   0  0  0  0  0  0  0  0  0  0  0  0
   33.2772   30.6147   89.6421 C   0  0  0  0  0  0  0  0  0  0  0  0
   33.0551   30.4932   88.2740 C   0  0  0  0  0  0  0  0  0  0  0  0
   34.0956   30.0286   87.4530 C   0  0  0  0  0  0  0  0  0  0  0  0
   35.3154   29.6621   88.0349 C   0  0  0  0  0  0  0  0  0  0  0  0
   35.5414   29.8615   89.3968 C   0  0  0  0  0  0  0  0  0  0  0  0
   33.9235   29.8931   85.9470 C   0  0  0  0  0  0  0  0  0  0  0  0
   31.8415   30.8746   87.7517 O   0  0  0  0  0  0  0  0  0  0  0  0
   31.3184   32.0843   88.3049 C   0  0  0  0  0  0  0  0  0  0  0  0
   32.6312   37.1850   96.8881 C   0  0  0  0  0  0  0  0  0  0  0  0
   36.6120   34.9461   97.7160 H   0  0  0  0  0  0  0  0  0  0  0  0
   34.5157   36.0640   98.4101 H   0  0  0  0  0  0  0  0  0  0  0  0
   37.1334   34.6961   95.3399 H   0  0  0  0  0  0  0  0  0  0  0  0
   32.5371   37.0072   93.9528 H   0  0  0  0  0  0  0  0  0  0  0  0
   36.9153   34.8804   92.4895 H   0  0  0  0  0  0  0  0  0  0  0  0
   36.5911   33.0598   94.2577 H   0  0  0  0  0  0  0  0  0  0  0  0
   36.8104   32.3680   92.7355 H   0  0  0  0  0  0  0  0  0  0  0  0
   33.9772   33.0339   93.8457 H   0  0  0  0  0  0  0  0  0  0  0  0
   34.6821   31.5010   94.1386 H   0  0  0  0  0  0  0  0  0  0  0  0
   33.7960   32.9149   90.1656 H   0  0  0  0  0  0  0  0  0  0  0  0
   33.3299   33.7108   91.6024 H   0  0  0  0  0  0  0  0  0  0  0  0
   36.2515   33.3945   90.6286 H   0  0  0  0  0  0  0  0  0  0  0  0
   35.3504   34.8544   90.5511 H   0  0  0  0  0  0  0  0  0  0  0  0
   32.4932   30.9610   90.2943 H   0  0  0  0  0  0  0  0  0  0  0  0
   36.1137   29.2667   87.4245 H   0  0  0  0  0  0  0  0  0  0  0  0
   36.5129   29.6368   89.8156 H   0  0  0  0  0  0  0  0  0  0  0  0
   34.5668   30.6017   85.4254 H   0  0  0  0  0  0  0  0  0  0  0  0
   34.2115   28.8918   85.6248 H   0  0  0  0  0  0  0  0  0  0  0  0
   32.8948   30.0598   85.6275 H   0  0  0  0  0  0  0  0  0  0  0  0
   30.5154   32.4645   87.7014 H   0  0  0  0  0  0  0  0  0  0  0  0
   30.9157   31.9421   89.3061 H   0  0  0  0  0  0  0  0  0  0  0  0
   32.0750   32.8702   88.3472 H   0  0  0  0  0  0  0  0  0  0  0  0
   32.4841   37.1827   97.9692 H   0  0  0  0  0  0  0  0  0  0  0  0
   32.8763   38.1825   96.5514 H   0  0  0  0  0  0  0  0  0  0  0  0
   31.7165   36.8638   96.3980 H   0  0  0  0  0  0  0  0  0  0  0  0
  1  2  2  0
  1  4  1  0
  1 29  1  0
  2  3  1  0
  2 30  1  0
  3  6  2  0
  3 28  1  0
  4  5  2  0
  4 31  1  0
  5  9  1  0
  5  6  1  0
  6  7  1  0
  7  8  1  0
  7 32  1  0
  8  9  1  0
  8 10  2  0
  9 11  1  0
 11 16  1  0
 11 12  1  0
 11 33  1  0
 12 13  1  0
 12 34  1  0
 12 35  1  0
 13 14  1  0
 13 36  1  0
 13 37  1  0
 14 15  1  0
 14 17  1  0
 15 16  1  0
 15 38  1  0
 15 39  1  0
 16 40  1  0
 16 41  1  0
 17 18  1  0
 17 19  2  0
 18 20  2  0
 18 24  1  0
 20 21  1  0
 20 42  1  0
 21 22  2  0
 21 26  1  0
 22 23  1  0
 22 25  1  0
 23 24  2  0
 23 43  1  0
 24 44  1  0
 25 45  1  0
 25 46  1  0
 25 47  1  0
 26 27  1  0
 27 48  1  0
 27 49  1  0
 27 50  1  0
 28 51  1  0
 28 52  1  0
 28 53  1  0
M  END
>  <Name>  (1) 
BDB50210892

>  <Target>  (1) 
11-beta-Hydroxysteroid Dehydrogenase 1 (11-beta-HSD1)

>  <Ki_in_nM>  (1) 
140

>  <Kd_from_ITC>  (1) 
false

>  <Uniprot_ID>  (1) 
P28845

>  <source_organism>  (1) 
Homo sapiens

>  <SourceTag>  (1) 
11betaHSD1

>  <s_i_glide_gridfile>  (1) 
11betahsd1_glide-grid

>  <i_i_glide_lignum>  (1) 
38

>  <i_i_glide_rotatable_bonds>  (1) 
4

>  <r_i_docking_score>  (1) 
-9.34374881147375

>  <r_i_glide_ligand_efficiency>  (1) 
-0.333705314695491

>  <r_i_glide_ligand_efficiency_sa>  (1) 
-1.01332587733509

>  <r_i_glide_ligand_efficiency_ln>  (1) 
-2.15681157007425

>  <r_i_glide_gscore>  (1) 
-9.34374881147375

>  <r_i_glide_lipo>  (1) 
-4.50128113879301

>  <r_i_glide_hbond>  (1) 
-0.222379539419497

>  <r_i_glide_metal>  (1) 
-0

>  <r_i_glide_rewards>  (1) 
-2.77681663845649

>  <r_i_glide_evdw>  (1) 
-31.7918090820312

>  <r_i_glide_ecoul>  (1) 
-4.38456249237061

>  <r_i_glide_erotb>  (1) 
0.404003333152407

>  <r_i_glide_esite>  (1) 
0

>  <r_i_glide_emodel>  (1) 
-32.7549022141083

>  <r_i_glide_energy>  (1) 
-36.1763715744019

>  <r_i_glide_einternal>  (1) 
9.37105369567871

>  <i_i_glide_confnum>  (1) 
49

>  <i_i_glide_posenum>  (1) 
132

>  <r_i_glide_eff_state_penalty>  (1) 
0

$$$$
