BDB50216916-35-0000
     RDKit          3D

 42 43  0  0  1  0  0  0  0  0999 V2000
   35.0385   35.0080   95.2788 C   0  0  0  0  0  0  0  0  0  0  0  0
   36.3295   35.1471   96.1415 C   0  0  0  0  0  0  0  0  0  0  0  0
   35.1260   33.8304   94.5260 O   0  0  0  0  0  0  0  0  0  0  0  0
   34.9518   36.0535   94.1624 C   0  0  0  0  0  0  0  0  0  0  0  0
   35.0255   35.4240   92.9443 N   0  0  0  0  0  0  0  0  0  0  0  0
   35.1398   34.1859   93.2121 C   0  0  0  0  0  0  0  0  0  0  0  0
   34.8444   37.2636   94.3422 O   0  0  0  0  0  0  0  0  0  0  0  0
   35.3147   33.1199   92.3540 N   0  0  0  0  0  0  0  0  0  0  0  0
   35.4354   33.2533   90.9035 C   0  0  2  0  0  0  0  0  0  0  0  0
   35.2076   31.8797   90.2533 C   0  0  0  0  0  0  0  0  0  0  0  0
   34.0440   31.5689   89.5136 C   0  0  0  0  0  0  0  0  0  0  0  0
   33.9554   30.3228   88.8723 C   0  0  0  0  0  0  0  0  0  0  0  0
   34.9878   29.3919   88.9679 C   0  0  0  0  0  0  0  0  0  0  0  0
   36.1139   29.6823   89.7300 C   0  0  0  0  0  0  0  0  0  0  0  0
   36.2169   30.9118   90.3718 C   0  0  0  0  0  0  0  0  0  0  0  0
   36.7707   33.8918   90.4664 C   0  0  0  0  0  0  0  0  0  0  0  0
   33.7214   34.9468   96.1087 C   0  0  0  0  0  0  0  0  0  0  0  0
   33.4241   36.1640   97.0109 C   0  0  0  0  0  0  0  0  0  0  0  0
   37.6772   35.1664   95.3902 C   0  0  0  0  0  0  0  0  0  0  0  0
   32.8566   32.5343   89.4055 C   0  0  0  0  0  0  0  0  0  0  0  0
   31.7691   31.9629   88.8798 F   0  0  0  0  0  0  0  0  0  0  0  0
   32.5179   32.9872   90.6123 F   0  0  0  0  0  0  0  0  0  0  0  0
   33.1877   33.5660   88.6323 F   0  0  0  0  0  0  0  0  0  0  0  0
   36.3558   34.3271   96.8613 H   0  0  0  0  0  0  0  0  0  0  0  0
   36.2623   36.0549   96.7394 H   0  0  0  0  0  0  0  0  0  0  0  0
   35.2561   32.1840   92.7225 H   0  0  0  0  0  0  0  0  0  0  0  0
   34.6625   33.9477   90.5747 H   0  0  0  0  0  0  0  0  0  0  0  0
   33.0864   30.0672   88.2844 H   0  0  0  0  0  0  0  0  0  0  0  0
   34.9153   28.4419   88.4575 H   0  0  0  0  0  0  0  0  0  0  0  0
   36.9141   28.9605   89.8037 H   0  0  0  0  0  0  0  0  0  0  0  0
   37.1047   31.1192   90.9517 H   0  0  0  0  0  0  0  0  0  0  0  0
   36.7826   34.0605   89.3896 H   0  0  0  0  0  0  0  0  0  0  0  0
   36.9247   34.8583   90.9493 H   0  0  0  0  0  0  0  0  0  0  0  0
   37.6328   33.2704   90.7027 H   0  0  0  0  0  0  0  0  0  0  0  0
   32.8695   34.7809   95.4449 H   0  0  0  0  0  0  0  0  0  0  0  0
   33.7629   34.0645   96.7488 H   0  0  0  0  0  0  0  0  0  0  0  0
   32.5003   36.0209   97.5703 H   0  0  0  0  0  0  0  0  0  0  0  0
   34.2132   36.3178   97.7445 H   0  0  0  0  0  0  0  0  0  0  0  0
   33.3096   37.0850   96.4378 H   0  0  0  0  0  0  0  0  0  0  0  0
   38.5126   35.2108   96.0896 H   0  0  0  0  0  0  0  0  0  0  0  0
   37.7550   36.0380   94.7387 H   0  0  0  0  0  0  0  0  0  0  0  0
   37.8130   34.2739   94.7791 H   0  0  0  0  0  0  0  0  0  0  0  0
  1  2  1  0
  1 17  1  0
  1  3  1  0
  1  4  1  0
  2 19  1  0
  2 24  1  0
  2 25  1  0
  3  6  1  0
  4  5  1  0
  4  7  2  0
  5  6  2  0
  6  8  1  0
  8  9  1  0
  8 26  1  0
  9 16  1  0
  9 10  1  0
  9 27  1  6
 10 15  1  0
 10 11  2  0
 11 12  1  0
 11 20  1  0
 12 13  2  0
 12 28  1  0
 13 14  1  0
 13 29  1  0
 14 15  2  0
 14 30  1  0
 15 31  1  0
 16 32  1  0
 16 33  1  0
 16 34  1  0
 17 18  1  0
 17 35  1  0
 17 36  1  0
 18 37  1  0
 18 38  1  0
 18 39  1  0
 19 40  1  0
 19 41  1  0
 19 42  1  0
 20 21  1  0
 20 22  1  0
 20 23  1  0
M  END
>  <Name>  (1) 
BDB50216916

>  <Target>  (1) 
11-beta-Hydroxysteroid Dehydrogenase 1 (11-beta-HSD1)

>  <Ki_in_nM>  (1) 
19

>  <IC50_in_nM>  (1) 
 95

>  <Kd_from_ITC>  (1) 
false

>  <Uniprot_ID>  (1) 
P28845

>  <source_organism>  (1) 
Homo sapiens

>  <SourceTag>  (1) 
11betaHSD1

>  <s_i_glide_gridfile>  (1) 
11betahsd1_glide-grid

>  <i_i_glide_lignum>  (1) 
36

>  <i_i_glide_rotatable_bonds>  (1) 
6

>  <r_i_docking_score>  (1) 
-8.82899641322685

>  <r_i_glide_ligand_efficiency>  (1) 
-0.383869409270732

>  <r_i_glide_ligand_efficiency_sa>  (1) 
-1.09167353645918

>  <r_i_glide_ligand_efficiency_ln>  (1) 
-2.13493138963155

>  <r_i_glide_gscore>  (1) 
-8.82899641322685

>  <r_i_glide_lipo>  (1) 
-3.70379412756736

>  <r_i_glide_hbond>  (1) 
0

>  <r_i_glide_metal>  (1) 
-0

>  <r_i_glide_rewards>  (1) 
-3.38889575376019

>  <r_i_glide_evdw>  (1) 
-38.6798057556152

>  <r_i_glide_ecoul>  (1) 
-2.1663498878479

>  <r_i_glide_erotb>  (1) 
0.522636239058654

>  <r_i_glide_esite>  (1) 
0

>  <r_i_glide_emodel>  (1) 
-61.1795009649936

>  <r_i_glide_energy>  (1) 
-40.8461556434631

>  <r_i_glide_einternal>  (1) 
4.3050856590271

>  <i_i_glide_confnum>  (1) 
4

>  <i_i_glide_posenum>  (1) 
369

>  <r_i_glide_eff_state_penalty>  (1) 
0

$$$$
