BDB50309943-7-0000
     RDKit          3D

 36 40  0  0  1  0  0  0  0  0999 V2000
   36.8764   33.8155   89.9073 O   0  0  0  0  0  0  0  0  0  0  0  0
   36.5978   32.8639   90.9828 S   0  0  0  0  0  0  0  0  0  0  0  0
   37.7125   32.0638   91.4953 O   0  0  0  0  0  0  0  0  0  0  0  0
   33.4069   30.0635   89.3514 C   0  0  0  0  0  0  0  0  0  0  0  0
   34.7402   29.6608   89.3556 C   0  0  0  0  0  0  0  0  0  0  0  0
   35.7124   30.5022   89.8899 C   0  0  0  0  0  0  0  0  0  0  0  0
   33.0424   31.2890   89.8794 C   0  0  0  0  0  0  0  0  0  0  0  0
   34.0056   32.1627   90.4064 C   0  0  0  0  0  0  0  0  0  0  0  0
   35.3438   31.7490   90.4022 C   0  0  0  0  0  0  0  0  0  0  0  0
   35.6608   33.6905   92.2831 N   0  0  0  0  0  0  0  0  0  0  0  0
   34.3304   34.1245   91.9788 C   0  0  0  0  0  0  0  0  0  0  0  0
   33.6010   33.4445   91.0429 C   0  0  0  0  0  0  0  0  0  0  0  0
   32.5157   33.9119   90.5266 O   0  0  0  0  0  0  0  0  0  0  0  0
   33.8186   35.4035   92.5297 C   0  0  0  0  0  0  0  0  0  0  0  0
   33.7154   36.3452   91.7528 O   0  0  0  0  0  0  0  0  0  0  0  0
   33.5013   35.5974   93.9876 C   0  0  0  0  0  0  0  0  0  0  0  0
   33.6631   34.5750   94.9255 C   0  0  0  0  0  0  0  0  0  0  0  0
   33.5899   34.8638   96.2868 C   0  0  0  0  0  0  0  0  0  0  0  0
   33.2879   36.1404   96.7285 C   0  0  0  0  0  0  0  0  0  0  0  0
   33.0103   37.1325   95.8043 C   0  0  0  0  0  0  0  0  0  0  0  0
   33.1140   36.8642   94.4452 C   0  0  0  0  0  0  0  0  0  0  0  0
   36.4527   34.2644   93.4293 C   0  0  0  0  0  0  0  0  0  0  0  0
   36.8685   33.2289   94.4794 C   0  0  0  0  0  0  0  0  0  0  0  0
   37.6106   33.7279   95.6451 C   0  0  0  0  0  0  0  0  0  0  0  0
   36.5035   32.0638   94.4007 O   0  0  0  0  0  0  0  0  0  0  0  0
   38.8595   33.2681   96.0714 C   0  0  0  0  0  0  0  0  0  0  0  0
   39.3131   33.6405   97.3417 C   0  0  0  0  0  0  0  0  0  0  0  0
   38.5582   34.4212   98.2103 C   0  0  0  0  0  0  0  0  0  0  0  0
   37.3235   34.8638   97.7154 C   0  0  0  0  0  0  0  0  0  0  0  0
   36.8898   34.5793   96.4502 C   0  0  0  0  0  0  0  0  0  0  0  0
   39.1217   34.7505   99.5724 C   0  0  0  0  0  0  0  0  0  0  0  0
   38.9154   35.9916  100.1960 C   0  0  0  0  0  0  0  0  0  0  0  0
   39.4722   36.2853  101.4376 C   0  0  0  0  0  0  0  0  0  0  0  0
   40.2534   35.3358  102.0850 C   0  0  0  0  0  0  0  0  0  0  0  0
   40.4746   34.0956  101.4991 C   0  0  0  0  0  0  0  0  0  0  0  0
   39.9143   33.8108  100.2573 C   0  0  0  0  0  0  0  0  0  0  0  0
  1  2  2  0
  2  3  2  0
  2  9  1  0
  2 10  1  0
  4  5  2  0
  4  7  1  0
  5  6  1  0
  6  9  2  0
  7  8  2  0
  8 12  1  0
  8  9  1  0
 10 22  1  0
 10 11  1  0
 11 12  2  0
 11 14  1  0
 12 13  1  0
 14 15  2  0
 14 16  1  0
 16 21  1  0
 16 17  2  0
 17 18  1  0
 18 19  2  0
 19 20  1  0
 20 21  2  0
 22 23  1  0
 23 24  1  0
 23 25  2  0
 24 26  2  0
 24 30  1  0
 26 27  1  0
 27 28  2  0
 28 29  1  0
 28 31  1  0
 29 30  2  0
 31 32  2  0
 31 36  1  0
 32 33  1  0
 33 34  2  0
 34 35  1  0
 35 36  2  0
M  CHG  1  13  -1
M  END
>  <Name>  (1) 
BDB50309943

>  <Target>  (1) 
11-beta-Hydroxysteroid Dehydrogenase 1 (11-beta-HSD1)

>  <IC50_in_nM>  (1) 
 28

>  <Kd_from_ITC>  (1) 
false

>  <Uniprot_ID>  (1) 
P28845

>  <source_organism>  (1) 
Homo sapiens

>  <SourceTag>  (1) 
11betaHSD1

>  <s_i_glide_gridfile>  (1) 
11betahsd1_glide-grid

>  <i_i_glide_lignum>  (1) 
8

>  <i_i_glide_rotatable_bonds>  (1) 
6

>  <r_i_docking_score>  (1) 
-10.0213032567512

>  <r_i_glide_ligand_efficiency>  (1) 
-0.278369534909757

>  <r_i_glide_ligand_efficiency_sa>  (1) 
-0.919155951482712

>  <r_i_glide_ligand_efficiency_ln>  (1) 
-2.18637762629749

>  <r_i_glide_gscore>  (1) 
-10.0213032567512

>  <r_i_glide_lipo>  (1) 
-5.93314522354823

>  <r_i_glide_hbond>  (1) 
-0.342739629315577

>  <r_i_glide_metal>  (1) 
-0

>  <r_i_glide_rewards>  (1) 
-2.23270725619662

>  <r_i_glide_evdw>  (1) 
-19.7126960754395

>  <r_i_glide_ecoul>  (1) 
-6.84692049026489

>  <r_i_glide_erotb>  (1) 
0.499961729620897

>  <r_i_glide_esite>  (1) 
0

>  <r_i_glide_emodel>  (1) 
-34.4520771298603

>  <r_i_glide_energy>  (1) 
-26.5596165657043

>  <r_i_glide_einternal>  (1) 
11.7171936035156

>  <i_i_glide_confnum>  (1) 
89

>  <i_i_glide_posenum>  (1) 
337

>  <r_i_glide_eff_state_penalty>  (1) 
0

$$$$
